<?xml version="1.0" encoding="UTF-8"?>

<!-- generated on 2024-10-26 22:49:08.734768 by randomtrips.py v1_21_0+0000-d7b3b481c43
<configuration>
    <net-file value="algsim.net.xml"/>
    <output-trip-file value="algsim.trips.xml"/>
    <end value="600.0"/>
</configuration>
-->

<routes xmlns:xsi="http://www.w3.org/2001/XMLSchema-instance" xsi:noNamespaceSchemaLocation="http://sumo.dlr.de/xsd/routes_file.xsd">
    <trip id="0" depart="0.00" from="e28" to="e10"/>
    <trip id="1" depart="1.00" from="e17" to="e17"/>
    <trip id="2" depart="2.00" from="e3" to="e3"/>
    <trip id="3" depart="3.00" from="e7" to="e11"/>
    <trip id="5" depart="5.00" from="e14" to="e23"/>
    <trip id="6" depart="6.00" from="e1" to="e14"/>
    <trip id="7" depart="7.00" from="e28" to="e25"/>
    <trip id="8" depart="8.00" from="e14" to="e26"/>
    <trip id="10" depart="10.00" from="e4" to="e30"/>
    <trip id="11" depart="11.00" from="e19" to="e13"/>
    <trip id="12" depart="12.00" from="e8" to="e19"/>
    <trip id="13" depart="13.00" from="e11" to="e12"/>
    <trip id="14" depart="14.00" from="e5" to="e26"/>
    <trip id="15" depart="15.00" from="e4" to="e30"/>
    <trip id="16" depart="16.00" from="e25" to="e9"/>
    <trip id="17" depart="17.00" from="e2" to="e25"/>
    <trip id="19" depart="19.00" from="e6" to="e26"/>
    <trip id="20" depart="20.00" from="e3" to="e11"/>
    <trip id="21" depart="21.00" from="e16" to="e18"/>
    
    
    <trip id="24" depart="24.00" from="e28" to="e20"/>
    <trip id="25" depart="25.00" from="e19" to="e14"/>
    <trip id="26" depart="26.00" from="e17" to="e8"/>
    
    <trip id="28" depart="28.00" from="e13" to="e30"/>
    <trip id="29" depart="29.00" from="e13" to="e20"/>
    
    <trip id="31" depart="31.00" from="e26" to="e3"/>
    <trip id="32" depart="32.00" from="e5" to="e4"/>
    <trip id="33" depart="33.00" from="e16" to="e10"/>
    <trip id="34" depart="34.00" from="e18" to="e18"/>
    <trip id="35" depart="35.00" from="e14" to="e8"/>
    <trip id="36" depart="36.00" from="e6" to="e19"/>
    <trip id="37" depart="37.00" from="e28" to="e21"/>
    <trip id="38" depart="38.00" from="e7" to="e22"/>
    <trip id="39" depart="39.00" from="e17" to="e17"/>
    
    <trip id="41" depart="41.00" from="e26" to="e7"/>
    
    <trip id="43" depart="43.00" from="e9" to="e23"/>
    <trip id="44" depart="44.00" from="e11" to="e11"/>
    
    <trip id="46" depart="46.00" from="e4" to="e21"/>
    <trip id="47" depart="47.00" from="e10" to="e20"/>
    <trip id="48" depart="48.00" from="e9" to="e25"/>
    <trip id="49" depart="49.00" from="e9" to="e6"/>
    <trip id="50" depart="50.00" from="e1" to="e30"/>
    <trip id="51" depart="51.00" from="e29" to="e25"/>
    <trip id="52" depart="52.00" from="e17" to="e29"/>
    <trip id="53" depart="53.00" from="e12" to="e21"/>
    <trip id="54" depart="54.00" from="e22" to="e8"/>
    
    <trip id="56" depart="56.00" from="e23" to="e14"/>
    <trip id="57" depart="57.00" from="e7" to="e7"/>
    
    <trip id="59" depart="59.00" from="e27" to="e13"/>
    <trip id="60" depart="60.00" from="e30" to="e25"/>
    <trip id="61" depart="61.00" from="e4" to="e25"/>
    <trip id="62" depart="62.00" from="e1" to="e19"/>
    <trip id="63" depart="63.00" from="e1" to="e8"/>
    <trip id="64" depart="64.00" from="e6" to="e6"/>
    <trip id="65" depart="65.00" from="e18" to="e11"/>
    <trip id="66" depart="66.00" from="e6" to="e8"/>
    <trip id="67" depart="67.00" from="e11" to="e23"/>
    <trip id="68" depart="68.00" from="e10" to="e4"/>
    <trip id="69" depart="69.00" from="e30" to="e12"/>
    <trip id="70" depart="70.00" from="e22" to="e25"/>
    <trip id="71" depart="71.00" from="e17" to="e7"/>
    <trip id="72" depart="72.00" from="e20" to="e14"/>
    <trip id="73" depart="73.00" from="e25" to="e30"/>
    <trip id="74" depart="74.00" from="e14" to="e19"/>
    
    <trip id="76" depart="76.00" from="e20" to="e23"/>
    
    <trip id="78" depart="78.00" from="e19" to="e26"/>
    <trip id="79" depart="79.00" from="e16" to="e17"/>
    
    <trip id="81" depart="81.00" from="e16" to="e7"/>
    <trip id="82" depart="82.00" from="e6" to="e11"/>
    <trip id="83" depart="83.00" from="e16" to="e3"/>
    <trip id="84" depart="84.00" from="e14" to="e13"/>
    <trip id="85" depart="85.00" from="e8" to="e26"/>
    <trip id="86" depart="86.00" from="e22" to="e5"/>
    <trip id="87" depart="87.00" from="e4" to="e14"/>
    <trip id="88" depart="88.00" from="e11" to="e21"/>
    <trip id="89" depart="89.00" from="e20" to="e22"/>
    <trip id="90" depart="90.00" from="e3" to="e3"/>
    <trip id="91" depart="91.00" from="e9" to="e12"/>
    <trip id="92" depart="92.00" from="e2" to="e19"/>
    
    <trip id="94" depart="94.00" from="e14" to="e22"/>
    
    <trip id="96" depart="96.00" from="e16" to="e8"/>
    <trip id="97" depart="97.00" from="e20" to="e6"/>
    <trip id="98" depart="98.00" from="e25" to="e11"/>
    <trip id="99" depart="99.00" from="e9" to="e6"/>
    <trip id="100" depart="100.00" from="e9" to="e8"/>
    <trip id="101" depart="101.00" from="e5" to="e13"/>
    <trip id="102" depart="102.00" from="e23" to="e14"/>
    <trip id="103" depart="103.00" from="e2" to="e11"/>
    <trip id="104" depart="104.00" from="e2" to="e9"/>
    <trip id="105" depart="105.00" from="e17" to="e5"/>
    <trip id="106" depart="106.00" from="e22" to="e21"/>
    <trip id="107" depart="107.00" from="e8" to="e9"/>
    <trip id="108" depart="108.00" from="e26" to="e30"/>

    <trip id="110" depart="110.00" from="e9" to="e26"/>
    <trip id="111" depart="111.00" from="e25" to="e4"/>
    <trip id="112" depart="112.00" from="e10" to="e26"/>
    <trip id="113" depart="113.00" from="e23" to="e6"/>
    <trip id="114" depart="114.00" from="e13" to="e9"/>
    <trip id="115" depart="115.00" from="e11" to="e14"/>
    <trip id="116" depart="116.00" from="e27" to="e3"/>
    <trip id="117" depart="117.00" from="e16" to="e12"/>

    
    <trip id="120" depart="120.00" from="e20" to="e26"/>
    <trip id="121" depart="121.00" from="e25" to="e8"/>
    <trip id="122" depart="122.00" from="e14" to="e30"/>
    <trip id="123" depart="123.00" from="e16" to="e21"/>
    
    <trip id="125" depart="125.00" from="e18" to="e4"/>
    <trip id="126" depart="126.00" from="e10" to="e22"/>
    <trip id="127" depart="127.00" from="e9" to="e9"/>
    <trip id="128" depart="128.00" from="e10" to="e14"/>
    <trip id="129" depart="129.00" from="e17" to="e8"/>
    <trip id="130" depart="130.00" from="e6" to="e7"/>
    <trip id="131" depart="131.00" from="e19" to="e13"/>
    <trip id="132" depart="132.00" from="e5" to="e30"/>
    <trip id="133" depart="133.00" from="e27" to="e9"/>
    <trip id="134" depart="134.00" from="e28" to="e10"/>
    
    <trip id="136" depart="136.00" from="e28" to="e8"/>
    <trip id="137" depart="137.00" from="e12" to="e12"/>
    <trip id="138" depart="138.00" from="e11" to="e25"/>
    <trip id="139" depart="139.00" from="e17" to="e26"/>
    <trip id="140" depart="140.00" from="e3" to="e14"/>
    
    <trip id="142" depart="142.00" from="e23" to="e7"/>
    <trip id="143" depart="143.00" from="e5" to="e12"/>
    
    <trip id="145" depart="145.00" from="e1" to="e4"/>
    
    <trip id="147" depart="147.00" from="e30" to="e25"/>
    
    <trip id="149" depart="149.00" from="e11" to="e7"/>
    <trip id="150" depart="150.00" from="e7" to="e25"/>
    <trip id="151" depart="151.00" from="e5" to="e26"/>
    <trip id="152" depart="152.00" from="e12" to="e12"/>
    <trip id="153" depart="153.00" from="e18" to="e7"/>
    <trip id="154" depart="154.00" from="e4" to="e6"/>
    <trip id="155" depart="155.00" from="e7" to="e14"/>
    <trip id="156" depart="156.00" from="e16" to="e12"/>
    <trip id="157" depart="157.00" from="e4" to="e7"/>
    
    <trip id="159" depart="159.00" from="e13" to="e8"/>
    <trip id="160" depart="160.00" from="e6" to="e9"/>
    <trip id="161" depart="161.00" from="e4" to="e7"/>
    <trip id="162" depart="162.00" from="e1" to="e30"/>
    <trip id="163" depart="163.00" from="e18" to="e8"/>
    <trip id="164" depart="164.00" from="e4" to="e6"/>
    
    <trip id="166" depart="166.00" from="e4" to="e12"/>
    <trip id="167" depart="167.00" from="e6" to="e6"/>
    <trip id="168" depart="168.00" from="e16" to="e5"/>
    <trip id="169" depart="169.00" from="e22" to="e19"/>
    
    <trip id="171" depart="171.00" from="e1" to="e14"/>
    <trip id="172" depart="172.00" from="e18" to="e6"/>

    <trip id="174" depart="174.00" from="e28" to="e21"/>
    <trip id="175" depart="175.00" from="e9" to="e25"/>
    <trip id="176" depart="176.00" from="e8" to="e12"/>
    <trip id="177" depart="177.00" from="e9" to="e14"/>
    
    <trip id="179" depart="179.00" from="e11" to="e21"/>
    <trip id="180" depart="180.00" from="e3" to="e19"/>
    <trip id="181" depart="181.00" from="e27" to="e23"/>
    <trip id="182" depart="182.00" from="e2" to="e26"/>
    <trip id="183" depart="183.00" from="e16" to="e30"/>
    <trip id="184" depart="184.00" from="e1" to="e8"/>
    <trip id="185" depart="185.00" from="e25" to="e30"/>
    <trip id="186" depart="186.00" from="e30" to="e3"/>
    <trip id="187" depart="187.00" from="e19" to="e11"/>
    <trip id="188" depart="188.00" from="e28" to="e19"/>
    <trip id="189" depart="189.00" from="e18" to="e6"/>
    
    <trip id="191" depart="191.00" from="e18" to="e21"/>
    
    <trip id="193" depart="193.00" from="e12" to="e21"/>
    <trip id="194" depart="194.00" from="e8" to="e3"/>
    
    <trip id="196" depart="196.00" from="e18" to="e25"/>

    <trip id="198" depart="198.00" from="e20" to="e26"/>
    <trip id="199" depart="199.00" from="e28" to="e22"/>
    <trip id="200" depart="200.00" from="e20" to="e14"/>
    <trip id="201" depart="201.00" from="e22" to="e7"/>
    <trip id="202" depart="202.00" from="e4" to="e13"/>
    <trip id="203" depart="203.00" from="e11" to="e23"/>
    <trip id="204" depart="204.00" from="e28" to="e19"/>
    <trip id="205" depart="205.00" from="e5" to="e4"/>
    
</routes>
