<?xml version="1.0" encoding="UTF-8"?>

<!-- generated on 2025-03-15 10:07:11 by Eclipse SUMO netedit Version 1.22.0
<neteditConfiguration xmlns:xsi="http://www.w3.org/2001/XMLSchema-instance" xsi:noNamespaceSchemaLocation="http://sumo.dlr.de/xsd/neteditConfiguration.xsd">

    <input>
        <sumocfg-file value="C:\Users\vuduc\OneDrive\Documents\OMNet++\workspace5.6\sumo\sumo1\sumocfg.sumocfg"/>
        <additional-files value=""/>
        <route-files value="C:\Users\vuduc\OneDrive\Documents\OMNet++\workspace5.6\sumo\sumo1\sumocfg.rou.xml"/>
        <sumo-net-file value="C:\Users\vuduc\OneDrive\Documents\OMNet++\workspace5.6\sumo\sumo2\sumo2.net.xml"/>
    </input>

    <output>
        <output-file value="C:\Users\vuduc\OneDrive\Documents\OMNet++\workspace5.6\sumo\sumo2\sumo2.net.xml"/>
    </output>

    <processing>
        <geometry.min-radius.fix.railways value="false"/>
        <geometry.max-grade.fix value="false"/>
        <offset.disable-normalization value="true"/>
        <lefthand value="0"/>
    </processing>

    <junctions>
        <no-internal-links value="false"/>
        <no-turnarounds value="true"/>
        <junctions.corner-detail value="5"/>
        <junctions.limit-turn-speed value="5.50"/>
        <rectangular-lane-cut value="0"/>
    </junctions>

    <pedestrian>
        <walkingareas value="true"/>
    </pedestrian>

</neteditConfiguration>
-->

<net version="1.20" junctionCornerDetail="5" walkingareas="true" limitTurnSpeed="5.50" xmlns:xsi="http://www.w3.org/2001/XMLSchema-instance" xsi:noNamespaceSchemaLocation="http://sumo.dlr.de/xsd/net_file.xsd">

    <location netOffset="0.00,0.00" convBoundary="0.00,-300.00,300.00,0.00" origBoundary="-10000000000.00,-10000000000.00,10000000000.00,10000000000.00" projParameter="!"/>

    <edge id=":J0_0" function="internal">
        <lane id=":J0_0_0" index="0" speed="6.08" length="7.74" shape="3.20,1.60 1.10,1.30 -0.40,0.40 -1.30,-1.10 -1.60,-3.20"/>
    </edge>
    <edge id=":J0_1" function="internal">
        <lane id=":J0_1_0" index="0" speed="3.90" length="2.58" shape="1.60,-3.20 1.70,-2.50 2.00,-2.00 2.50,-1.70 3.20,-1.60"/>
    </edge>
    <edge id=":J0_w0" function="walkingarea">
        <lane id=":J0_w0_0" index="0" allow="pedestrian" speed="2.78" length="4.26" width="6.40" shape="3.20,3.20 3.20,-3.20 -3.20,-3.20 -2.49,0.36 -1.60,1.60 -0.36,2.49 1.24,3.02"/>
    </edge>
    <edge id=":J1_0" function="internal">
        <lane id=":J1_0_0" index="0" speed="13.89" length="33.60" shape="116.80,1.60 83.20,1.60"/>
    </edge>
    <edge id=":J1_1" function="internal">
        <lane id=":J1_1_0" index="0" speed="10.54" length="25.39" shape="116.80,1.60 107.35,1.05 100.60,-0.60 96.55,-3.35 95.20,-7.20"/>
        <lane id=":J1_1_1" index="1" speed="9.94" length="22.48" shape="116.80,1.60 108.75,1.05 103.00,-0.60 99.55,-3.35 98.40,-7.20"/>
    </edge>
    <edge id=":J1_3" function="internal">
        <lane id=":J1_3_0" index="0" speed="6.51" length="9.03" shape="111.20,-7.20 111.55,-4.75 112.60,-3.00 114.35,-1.95 116.80,-1.60"/>
    </edge>
    <edge id=":J1_4" function="internal">
        <lane id=":J1_4_0" index="0" speed="9.94" length="22.48" shape="101.60,-7.20 100.45,-3.35 97.00,-0.60 91.25,1.05 83.20,1.60"/>
    </edge>
    <edge id=":J1_5" function="internal">
        <lane id=":J1_5_0" index="0" speed="6.51" length="9.03" shape="83.20,-1.60 85.65,-1.95 87.40,-3.00 88.45,-4.75 88.80,-7.20"/>
        <lane id=":J1_5_1" index="1" speed="7.33" length="11.73" shape="83.20,-1.60 87.05,-1.95 89.80,-3.00 91.45,-4.75 92.00,-7.20"/>
        <lane id=":J1_5_2" index="2" speed="8.10" length="14.57" shape="83.20,-1.60 88.45,-1.95 92.20,-3.00 94.45,-4.75 95.20,-7.20"/>
    </edge>
    <edge id=":J1_8" function="internal">
        <lane id=":J1_8_0" index="0" speed="13.89" length="33.60" shape="83.20,-1.60 116.80,-1.60"/>
    </edge>
    <edge id=":J1_w0" function="walkingarea">
        <lane id=":J1_w0_0" index="0" allow="pedestrian" speed="2.78" length="21.07" width="25.60" shape="116.80,3.20 116.80,-3.20 114.58,-3.64 113.80,-4.20 113.24,-4.98 112.91,-5.98 112.80,-7.20 87.20,-7.20 86.76,-4.98 86.20,-4.20 85.42,-3.64 84.42,-3.31 83.20,-3.20 83.20,3.20"/>
    </edge>
    <edge id=":J10_0" function="internal">
        <lane id=":J10_0_0" index="0" speed="13.89" length="14.40" shape="-1.60,-192.80 -1.60,-207.20"/>
    </edge>
    <edge id=":J10_1" function="internal">
        <lane id=":J10_1_0" index="0" speed="8.00" length="4.07" shape="-1.60,-192.80 -1.05,-196.65 -0.96,-196.80"/>
    </edge>
    <edge id=":J10_6" function="internal">
        <lane id=":J10_6_0" index="0" speed="8.00" length="10.13" shape="-0.96,-196.80 0.60,-199.40 3.35,-201.05 7.20,-201.60"/>
    </edge>
    <edge id=":J10_2" function="internal">
        <lane id=":J10_2_0" index="0" speed="6.51" length="9.03" shape="7.20,-198.40 4.75,-198.05 3.00,-197.00 1.95,-195.25 1.60,-192.80"/>
    </edge>
    <edge id=":J10_3" function="internal">
        <lane id=":J10_3_0" index="0" speed="8.00" length="14.19" shape="7.20,-198.40 3.35,-198.95 0.60,-200.60 -1.05,-203.35 -1.60,-207.20"/>
    </edge>
    <edge id=":J10_4" function="internal">
        <lane id=":J10_4_0" index="0" speed="6.51" length="9.03" shape="1.60,-207.20 1.95,-204.75 3.00,-203.00 4.75,-201.95 7.20,-201.60"/>
    </edge>
    <edge id=":J10_5" function="internal">
        <lane id=":J10_5_0" index="0" speed="13.89" length="14.40" shape="1.60,-207.20 1.60,-192.80"/>
    </edge>
    <edge id=":J10_w0" function="walkingarea">
        <lane id=":J10_w0_0" index="0" allow="pedestrian" speed="2.78" length="10.02" width="6.40" shape="-3.20,-192.80 3.20,-192.80 3.64,-195.02 4.20,-195.80 4.98,-196.36 5.98,-196.69 7.20,-196.80 7.20,-203.20 4.98,-203.64 4.20,-204.20 3.64,-204.98 3.31,-205.98 3.20,-207.20 -3.20,-207.20"/>
    </edge>
    <edge id=":J11_0" function="internal">
        <lane id=":J11_0_0" index="0" speed="13.89" length="27.20" shape="-1.60,-86.40 -1.60,-113.60"/>
    </edge>
    <edge id=":J11_1" function="internal">
        <lane id=":J11_1_0" index="0" speed="9.94" length="22.48" shape="-1.60,-86.40 -1.05,-94.45 0.60,-100.20 3.35,-103.65 7.20,-104.80"/>
        <lane id=":J11_1_1" index="1" speed="9.32" length="19.63" shape="-1.60,-86.40 -1.05,-93.05 0.60,-97.80 3.35,-100.65 7.20,-101.60"/>
    </edge>
    <edge id=":J11_3" function="internal">
        <lane id=":J11_3_0" index="0" speed="6.51" length="9.03" shape="7.20,-92.00 4.75,-91.65 3.00,-90.60 1.95,-88.85 1.60,-86.40"/>
    </edge>
    <edge id=":J11_4" function="internal">
        <lane id=":J11_4_0" index="0" speed="9.32" length="19.63" shape="7.20,-98.40 3.35,-99.35 0.60,-102.20 -1.05,-106.95 -1.60,-113.60"/>
    </edge>
    <edge id=":J11_5" function="internal">
        <lane id=":J11_5_0" index="0" speed="6.51" length="9.03" shape="1.60,-113.60 1.95,-111.15 3.00,-109.40 4.75,-108.35 7.20,-108.00"/>
    </edge>
    <edge id=":J11_6" function="internal">
        <lane id=":J11_6_0" index="0" speed="13.89" length="27.20" shape="1.60,-113.60 1.60,-86.40"/>
    </edge>
    <edge id=":J11_w0" function="walkingarea">
        <lane id=":J11_w0_0" index="0" allow="pedestrian" speed="2.78" length="17.30" width="19.20" shape="-3.20,-86.40 3.20,-86.40 3.64,-88.62 4.20,-89.40 4.98,-89.96 5.98,-90.29 7.20,-90.40 7.20,-109.60 4.98,-110.04 4.20,-110.60 3.64,-111.38 3.31,-112.38 3.20,-113.60 -3.20,-113.60"/>
    </edge>
    <edge id=":J12_0" function="internal">
        <lane id=":J12_0_0" index="0" speed="6.51" length="9.03" shape="88.80,-86.40 88.45,-88.85 87.40,-90.60 85.65,-91.65 83.20,-92.00"/>
    </edge>
    <edge id=":J12_1" function="internal">
        <lane id=":J12_1_0" index="0" speed="13.89" length="27.20" shape="92.00,-86.40 92.00,-113.60"/>
        <lane id=":J12_1_1" index="1" speed="13.89" length="27.20" shape="95.20,-86.40 95.20,-113.60"/>
    </edge>
    <edge id=":J12_3" function="internal">
        <lane id=":J12_3_0" index="0" speed="10.88" length="27.14" shape="98.40,-86.40 99.55,-93.05 103.00,-97.80 108.75,-100.65 116.80,-101.60"/>
    </edge>
    <edge id=":J12_4" function="internal">
        <lane id=":J12_4_0" index="0" speed="6.51" length="9.03" shape="116.80,-92.00 114.35,-91.65 112.60,-90.60 111.55,-88.85 111.20,-86.40"/>
    </edge>
    <edge id=":J12_5" function="internal">
        <lane id=":J12_5_0" index="0" speed="13.89" length="33.60" shape="116.80,-95.20 83.20,-95.20"/>
    </edge>
    <edge id=":J12_6" function="internal">
        <lane id=":J12_6_0" index="0" speed="10.88" length="14.35" shape="116.80,-98.40 108.75,-99.35 103.15,-102.12"/>
    </edge>
    <edge id=":J12_14" function="internal">
        <lane id=":J12_14_0" index="0" speed="10.88" length="12.79" shape="103.15,-102.12 103.00,-102.20 99.55,-106.95 98.40,-113.60"/>
    </edge>
    <edge id=":J12_7" function="internal">
        <lane id=":J12_7_0" index="0" speed="6.51" length="9.03" shape="111.20,-113.60 111.55,-111.15 112.60,-109.40 114.35,-108.35 116.80,-108.00"/>
    </edge>
    <edge id=":J12_8" function="internal">
        <lane id=":J12_8_0" index="0" speed="13.89" length="27.20" shape="108.00,-113.60 108.00,-86.40"/>
        <lane id=":J12_8_1" index="1" speed="13.89" length="27.20" shape="104.80,-113.60 104.80,-86.40"/>
    </edge>
    <edge id=":J12_10" function="internal">
        <lane id=":J12_10_0" index="0" speed="10.88" length="27.14" shape="101.60,-113.60 100.45,-106.95 97.00,-102.20 91.25,-99.35 83.20,-98.40"/>
    </edge>
    <edge id=":J12_11" function="internal">
        <lane id=":J12_11_0" index="0" speed="6.51" length="9.03" shape="83.20,-108.00 85.65,-108.35 87.40,-109.40 88.45,-111.15 88.80,-113.60"/>
    </edge>
    <edge id=":J12_12" function="internal">
        <lane id=":J12_12_0" index="0" speed="13.89" length="33.60" shape="83.20,-104.80 116.80,-104.80"/>
    </edge>
    <edge id=":J12_13" function="internal">
        <lane id=":J12_13_0" index="0" speed="10.88" length="14.35" shape="83.20,-101.60 91.25,-100.65 96.85,-97.88"/>
    </edge>
    <edge id=":J12_15" function="internal">
        <lane id=":J12_15_0" index="0" speed="10.88" length="12.79" shape="96.85,-97.88 97.00,-97.80 100.45,-93.05 101.60,-86.40"/>
    </edge>
    <edge id=":J12_w0" function="walkingarea">
        <lane id=":J12_w0_0" index="0" allow="pedestrian" speed="2.78" length="25.71" width="25.60" shape="87.20,-86.40 112.80,-86.40 113.24,-88.62 113.80,-89.40 114.58,-89.96 115.58,-90.29 116.80,-90.40 116.80,-109.60 114.58,-110.04 113.80,-110.60 113.24,-111.38 112.91,-112.38 112.80,-113.60 87.20,-113.60 86.76,-111.38 86.20,-110.60 85.42,-110.04 84.42,-109.71 83.20,-109.60 83.20,-90.40 85.42,-89.96 86.20,-89.40 86.76,-88.62 87.09,-87.62"/>
    </edge>
    <edge id=":J13_0" function="internal">
        <lane id=":J13_0_0" index="0" speed="6.51" length="9.03" shape="195.20,-86.40 194.85,-88.85 193.80,-90.60 192.05,-91.65 189.60,-92.00"/>
    </edge>
    <edge id=":J13_1" function="internal">
        <lane id=":J13_1_0" index="0" speed="13.89" length="27.20" shape="195.20,-86.40 195.20,-113.60"/>
        <lane id=":J13_1_1" index="1" speed="13.89" length="27.20" shape="198.40,-86.40 198.40,-113.60"/>
    </edge>
    <edge id=":J13_3" function="internal">
        <lane id=":J13_3_0" index="0" speed="9.84" length="21.99" shape="198.40,-86.40 199.15,-93.05 201.40,-97.80 205.15,-100.65 210.40,-101.60"/>
    </edge>
    <edge id=":J13_4" function="internal">
        <lane id=":J13_4_0" index="0" speed="6.51" length="9.03" shape="210.40,-92.00 207.95,-91.65 206.20,-90.60 205.15,-88.85 204.80,-86.40"/>
    </edge>
    <edge id=":J13_5" function="internal">
        <lane id=":J13_5_0" index="0" speed="13.89" length="20.80" shape="210.40,-92.00 189.60,-92.00"/>
        <lane id=":J13_5_1" index="1" speed="13.89" length="20.80" shape="210.40,-95.20 189.60,-95.20"/>
        <lane id=":J13_5_2" index="2" speed="13.89" length="20.80" shape="210.40,-98.40 189.60,-98.40"/>
    </edge>
    <edge id=":J13_8" function="internal">
        <lane id=":J13_8_0" index="0" speed="9.84" length="4.01" shape="210.40,-98.40 206.45,-99.11"/>
    </edge>
    <edge id=":J13_18" function="internal">
        <lane id=":J13_18_0" index="0" speed="9.84" length="17.98" shape="206.45,-99.11 205.15,-99.35 201.40,-102.20 199.15,-106.95 198.40,-113.60"/>
    </edge>
    <edge id=":J13_9" function="internal">
        <lane id=":J13_9_0" index="0" speed="6.51" length="9.03" shape="204.80,-113.60 205.15,-111.15 206.20,-109.40 207.95,-108.35 210.40,-108.00"/>
    </edge>
    <edge id=":J13_10" function="internal">
        <lane id=":J13_10_0" index="0" speed="13.89" length="27.20" shape="204.80,-113.60 204.80,-86.40"/>
        <lane id=":J13_10_1" index="1" speed="13.89" length="27.20" shape="201.60,-113.60 201.60,-86.40"/>
    </edge>
    <edge id=":J13_12" function="internal">
        <lane id=":J13_12_0" index="0" speed="9.84" length="21.99" shape="201.60,-113.60 200.85,-106.95 198.60,-102.20 194.85,-99.35 189.60,-98.40"/>
    </edge>
    <edge id=":J13_13" function="internal">
        <lane id=":J13_13_0" index="0" speed="6.51" length="9.03" shape="189.60,-108.00 192.05,-108.35 193.80,-109.40 194.85,-111.15 195.20,-113.60"/>
    </edge>
    <edge id=":J13_14" function="internal">
        <lane id=":J13_14_0" index="0" speed="13.89" length="20.80" shape="189.60,-108.00 210.40,-108.00"/>
        <lane id=":J13_14_1" index="1" speed="13.89" length="20.80" shape="189.60,-104.80 210.40,-104.80"/>
        <lane id=":J13_14_2" index="2" speed="13.89" length="20.80" shape="189.60,-101.60 210.40,-101.60"/>
    </edge>
    <edge id=":J13_17" function="internal">
        <lane id=":J13_17_0" index="0" speed="9.84" length="4.01" shape="189.60,-101.60 193.55,-100.89"/>
    </edge>
    <edge id=":J13_19" function="internal">
        <lane id=":J13_19_0" index="0" speed="9.84" length="17.98" shape="193.55,-100.89 194.85,-100.65 198.60,-97.80 200.85,-93.05 201.60,-86.40"/>
    </edge>
    <edge id=":J13_w0" function="walkingarea">
        <lane id=":J13_w0_0" index="0" allow="pedestrian" speed="2.78" length="19.60" width="19.20" shape="193.60,-86.40 206.40,-86.40 206.84,-88.62 207.40,-89.40 208.18,-89.96 209.18,-90.29 210.40,-90.40 210.40,-109.60 208.18,-110.04 207.40,-110.60 206.84,-111.38 206.51,-112.38 206.40,-113.60 193.60,-113.60 193.16,-111.38 192.60,-110.60 191.82,-110.04 190.82,-109.71 189.60,-109.60 189.60,-90.40 191.82,-89.96 192.60,-89.40 193.16,-88.62 193.49,-87.62"/>
    </edge>
    <edge id=":J14_0" function="internal">
        <lane id=":J14_0_0" index="0" speed="6.51" length="9.03" shape="88.80,-192.80 88.45,-195.25 87.40,-197.00 85.65,-198.05 83.20,-198.40"/>
    </edge>
    <edge id=":J14_1" function="internal">
        <lane id=":J14_1_0" index="0" speed="13.89" length="14.40" shape="88.80,-192.80 88.80,-207.20"/>
        <lane id=":J14_1_1" index="1" speed="13.89" length="14.40" shape="92.00,-192.80 92.00,-207.20"/>
        <lane id=":J14_1_2" index="2" speed="13.89" length="14.40" shape="95.20,-192.80 95.20,-207.20"/>
        <lane id=":J14_1_3" index="3" speed="13.89" length="14.40" shape="98.40,-192.80 98.40,-207.20"/>
    </edge>
    <edge id=":J14_5" function="internal">
        <lane id=":J14_5_0" index="0" speed="9.94" length="2.58" shape="98.40,-192.80 99.14,-195.27"/>
    </edge>
    <edge id=":J14_18" function="internal">
        <lane id=":J14_18_0" index="0" speed="9.94" length="19.90" shape="99.14,-195.27 99.55,-196.65 103.00,-199.40 108.75,-201.05 116.80,-201.60"/>
    </edge>
    <edge id=":J14_6" function="internal">
        <lane id=":J14_6_0" index="0" speed="6.51" length="9.03" shape="116.80,-198.40 114.35,-198.05 112.60,-197.00 111.55,-195.25 111.20,-192.80"/>
    </edge>
    <edge id=":J14_7" function="internal">
        <lane id=":J14_7_0" index="0" speed="13.89" length="33.60" shape="116.80,-198.40 83.20,-198.40"/>
    </edge>
    <edge id=":J14_8" function="internal">
        <lane id=":J14_8_0" index="0" speed="9.94" length="22.48" shape="116.80,-198.40 108.75,-198.95 103.00,-200.60 99.55,-203.35 98.40,-207.20"/>
    </edge>
    <edge id=":J14_9" function="internal">
        <lane id=":J14_9_0" index="0" speed="6.51" length="9.03" shape="111.20,-207.20 111.55,-204.75 112.60,-203.00 114.35,-201.95 116.80,-201.60"/>
    </edge>
    <edge id=":J14_10" function="internal">
        <lane id=":J14_10_0" index="0" speed="13.89" length="14.40" shape="111.20,-207.20 111.20,-192.80"/>
        <lane id=":J14_10_1" index="1" speed="13.89" length="14.40" shape="108.00,-207.20 108.00,-192.80"/>
        <lane id=":J14_10_2" index="2" speed="13.89" length="14.40" shape="104.80,-207.20 104.80,-192.80"/>
        <lane id=":J14_10_3" index="3" speed="13.89" length="14.40" shape="101.60,-207.20 101.60,-192.80"/>
    </edge>
    <edge id=":J14_14" function="internal">
        <lane id=":J14_14_0" index="0" speed="9.94" length="2.58" shape="101.60,-207.20 100.86,-204.73"/>
    </edge>
    <edge id=":J14_19" function="internal">
        <lane id=":J14_19_0" index="0" speed="9.94" length="19.90" shape="100.86,-204.73 100.45,-203.35 97.00,-200.60 91.25,-198.95 83.20,-198.40"/>
    </edge>
    <edge id=":J14_15" function="internal">
        <lane id=":J14_15_0" index="0" speed="6.51" length="9.03" shape="83.20,-201.60 85.65,-201.95 87.40,-203.00 88.45,-204.75 88.80,-207.20"/>
    </edge>
    <edge id=":J14_16" function="internal">
        <lane id=":J14_16_0" index="0" speed="13.89" length="33.60" shape="83.20,-201.60 116.80,-201.60"/>
    </edge>
    <edge id=":J14_17" function="internal">
        <lane id=":J14_17_0" index="0" speed="9.94" length="22.48" shape="83.20,-201.60 91.25,-201.05 97.00,-199.40 100.45,-196.65 101.60,-192.80"/>
    </edge>
    <edge id=":J14_w0" function="walkingarea">
        <lane id=":J14_w0_0" index="0" allow="pedestrian" speed="2.78" length="20.46" width="25.60" shape="87.20,-192.80 112.80,-192.80 113.24,-195.02 113.80,-195.80 114.58,-196.36 115.58,-196.69 116.80,-196.80 116.80,-203.20 114.58,-203.64 113.80,-204.20 113.24,-204.98 112.91,-205.98 112.80,-207.20 87.20,-207.20 86.76,-204.98 86.20,-204.20 85.42,-203.64 84.42,-203.31 83.20,-203.20 83.20,-196.80 85.42,-196.36 86.20,-195.80 86.76,-195.02 87.09,-194.02"/>
    </edge>
    <edge id=":J15_0" function="internal">
        <lane id=":J15_0_0" index="0" speed="6.51" length="9.03" shape="195.20,-192.80 194.85,-195.25 193.80,-197.00 192.05,-198.05 189.60,-198.40"/>
    </edge>
    <edge id=":J15_1" function="internal">
        <lane id=":J15_1_0" index="0" speed="13.89" length="14.40" shape="195.20,-192.80 195.20,-207.20"/>
        <lane id=":J15_1_1" index="1" speed="13.89" length="14.40" shape="198.40,-192.80 198.40,-207.20"/>
    </edge>
    <edge id=":J15_3" function="internal">
        <lane id=":J15_3_0" index="0" speed="8.67" length="3.71" shape="198.40,-192.80 199.11,-196.44"/>
    </edge>
    <edge id=":J15_14" function="internal">
        <lane id=":J15_14_0" index="0" speed="8.67" length="13.14" shape="199.11,-196.44 199.15,-196.65 201.40,-199.40 205.15,-201.05 210.40,-201.60"/>
    </edge>
    <edge id=":J15_4" function="internal">
        <lane id=":J15_4_0" index="0" speed="6.51" length="9.03" shape="210.40,-198.40 207.95,-198.05 206.20,-197.00 205.15,-195.25 204.80,-192.80"/>
    </edge>
    <edge id=":J15_5" function="internal">
        <lane id=":J15_5_0" index="0" speed="13.89" length="20.80" shape="210.40,-198.40 189.60,-198.40"/>
    </edge>
    <edge id=":J15_6" function="internal">
        <lane id=":J15_6_0" index="0" speed="8.67" length="16.85" shape="210.40,-198.40 205.15,-198.95 201.40,-200.60 199.15,-203.35 198.40,-207.20"/>
    </edge>
    <edge id=":J15_7" function="internal">
        <lane id=":J15_7_0" index="0" speed="6.51" length="9.03" shape="204.80,-207.20 205.15,-204.75 206.20,-203.00 207.95,-201.95 210.40,-201.60"/>
    </edge>
    <edge id=":J15_8" function="internal">
        <lane id=":J15_8_0" index="0" speed="13.89" length="14.40" shape="204.80,-207.20 204.80,-192.80"/>
        <lane id=":J15_8_1" index="1" speed="13.89" length="14.40" shape="201.60,-207.20 201.60,-192.80"/>
    </edge>
    <edge id=":J15_10" function="internal">
        <lane id=":J15_10_0" index="0" speed="8.67" length="3.71" shape="201.60,-207.20 200.89,-203.56"/>
    </edge>
    <edge id=":J15_15" function="internal">
        <lane id=":J15_15_0" index="0" speed="8.67" length="13.14" shape="200.89,-203.56 200.85,-203.35 198.60,-200.60 194.85,-198.95 189.60,-198.40"/>
    </edge>
    <edge id=":J15_11" function="internal">
        <lane id=":J15_11_0" index="0" speed="6.51" length="9.03" shape="189.60,-201.60 192.05,-201.95 193.80,-203.00 194.85,-204.75 195.20,-207.20"/>
    </edge>
    <edge id=":J15_12" function="internal">
        <lane id=":J15_12_0" index="0" speed="13.89" length="20.80" shape="189.60,-201.60 210.40,-201.60"/>
    </edge>
    <edge id=":J15_13" function="internal">
        <lane id=":J15_13_0" index="0" speed="8.67" length="16.85" shape="189.60,-201.60 194.85,-201.05 198.60,-199.40 200.85,-196.65 201.60,-192.80"/>
    </edge>
    <edge id=":J15_w0" function="walkingarea">
        <lane id=":J15_w0_0" index="0" allow="pedestrian" speed="2.78" length="13.61" width="12.80" shape="193.60,-192.80 206.40,-192.80 206.84,-195.02 207.40,-195.80 208.18,-196.36 209.18,-196.69 210.40,-196.80 210.40,-203.20 208.18,-203.64 207.40,-204.20 206.84,-204.98 206.51,-205.98 206.40,-207.20 193.60,-207.20 193.16,-204.98 192.60,-204.20 191.82,-203.64 190.82,-203.31 189.60,-203.20 189.60,-196.80 191.82,-196.36 192.60,-195.80 193.16,-195.02 193.49,-194.02"/>
    </edge>
    <edge id=":J2_0" function="internal">
        <lane id=":J2_0_0" index="0" speed="13.89" length="20.80" shape="210.40,1.60 189.60,1.60"/>
    </edge>
    <edge id=":J2_1" function="internal">
        <lane id=":J2_1_0" index="0" speed="8.67" length="16.85" shape="210.40,1.60 205.15,1.05 201.40,-0.60 199.15,-3.35 198.40,-7.20"/>
    </edge>
    <edge id=":J2_2" function="internal">
        <lane id=":J2_2_0" index="0" speed="6.51" length="9.03" shape="204.80,-7.20 205.15,-4.75 206.20,-3.00 207.95,-1.95 210.40,-1.60"/>
    </edge>
    <edge id=":J2_3" function="internal">
        <lane id=":J2_3_0" index="0" speed="8.67" length="16.85" shape="201.60,-7.20 200.85,-3.35 198.60,-0.60 194.85,1.05 189.60,1.60"/>
    </edge>
    <edge id=":J2_4" function="internal">
        <lane id=":J2_4_0" index="0" speed="6.51" length="9.03" shape="189.60,-1.60 192.05,-1.95 193.80,-3.00 194.85,-4.75 195.20,-7.20"/>
    </edge>
    <edge id=":J2_5" function="internal">
        <lane id=":J2_5_0" index="0" speed="13.89" length="20.80" shape="189.60,-1.60 210.40,-1.60"/>
    </edge>
    <edge id=":J2_w0" function="walkingarea">
        <lane id=":J2_w0_0" index="0" allow="pedestrian" speed="2.78" length="13.59" width="12.80" shape="210.40,3.20 210.40,-3.20 208.18,-3.64 207.40,-4.20 206.84,-4.98 206.51,-5.98 206.40,-7.20 193.60,-7.20 193.16,-4.98 192.60,-4.20 191.82,-3.64 190.82,-3.31 189.60,-3.20 189.60,3.20"/>
    </edge>
    <edge id=":J3_0" function="internal">
        <lane id=":J3_0_0" index="0" speed="6.08" length="7.74" shape="301.60,-3.20 301.30,-1.10 300.40,0.40 298.90,1.30 296.80,1.60"/>
    </edge>
    <edge id=":J3_1" function="internal">
        <lane id=":J3_1_0" index="0" speed="3.90" length="2.58" shape="296.80,-1.60 297.50,-1.70 298.00,-2.00 298.30,-2.50 298.40,-3.20"/>
    </edge>
    <edge id=":J3_w0" function="walkingarea">
        <lane id=":J3_w0_0" index="0" allow="pedestrian" speed="2.78" length="4.26" width="6.40" shape="303.20,-3.20 296.80,-3.20 296.80,3.20 300.36,2.49 301.60,1.60 302.49,0.36 303.02,-1.24"/>
    </edge>
    <edge id=":J4_0" function="internal">
        <lane id=":J4_0_0" index="0" speed="6.51" length="9.03" shape="298.40,-86.40 298.05,-88.85 297.00,-90.60 295.25,-91.65 292.80,-92.00"/>
    </edge>
    <edge id=":J4_1" function="internal">
        <lane id=":J4_1_0" index="0" speed="13.89" length="27.20" shape="298.40,-86.40 298.40,-113.60"/>
    </edge>
    <edge id=":J4_2" function="internal">
        <lane id=":J4_2_0" index="0" speed="13.89" length="27.20" shape="301.60,-113.60 301.60,-86.40"/>
    </edge>
    <edge id=":J4_3" function="internal">
        <lane id=":J4_3_0" index="0" speed="9.94" length="22.48" shape="301.60,-113.60 301.05,-105.55 299.40,-99.80 296.65,-96.35 292.80,-95.20"/>
        <lane id=":J4_3_1" index="1" speed="9.32" length="19.63" shape="301.60,-113.60 301.05,-106.95 299.40,-102.20 296.65,-99.35 292.80,-98.40"/>
    </edge>
    <edge id=":J4_5" function="internal">
        <lane id=":J4_5_0" index="0" speed="6.51" length="9.03" shape="292.80,-108.00 295.25,-108.35 297.00,-109.40 298.05,-111.15 298.40,-113.60"/>
    </edge>
    <edge id=":J4_6" function="internal">
        <lane id=":J4_6_0" index="0" speed="9.32" length="19.63" shape="292.80,-101.60 296.65,-100.65 299.40,-97.80 301.05,-93.05 301.60,-86.40"/>
    </edge>
    <edge id=":J4_w0" function="walkingarea">
        <lane id=":J4_w0_0" index="0" allow="pedestrian" speed="2.78" length="17.30" width="19.20" shape="296.80,-86.40 303.20,-86.40 303.20,-113.60 296.80,-113.60 296.36,-111.38 295.80,-110.60 295.02,-110.04 294.02,-109.71 292.80,-109.60 292.80,-90.40 295.02,-89.96 295.80,-89.40 296.36,-88.62 296.69,-87.62"/>
    </edge>
    <edge id=":J5_0" function="internal">
        <lane id=":J5_0_0" index="0" speed="6.51" length="9.03" shape="298.40,-192.80 298.05,-195.25 297.00,-197.00 295.25,-198.05 292.80,-198.40"/>
    </edge>
    <edge id=":J5_1" function="internal">
        <lane id=":J5_1_0" index="0" speed="13.89" length="14.40" shape="298.40,-192.80 298.40,-207.20"/>
    </edge>
    <edge id=":J5_2" function="internal">
        <lane id=":J5_2_0" index="0" speed="13.89" length="14.40" shape="301.60,-207.20 301.60,-192.80"/>
    </edge>
    <edge id=":J5_3" function="internal">
        <lane id=":J5_3_0" index="0" speed="8.00" length="4.07" shape="301.60,-207.20 301.05,-203.35 300.96,-203.20"/>
    </edge>
    <edge id=":J5_6" function="internal">
        <lane id=":J5_6_0" index="0" speed="8.00" length="10.13" shape="300.96,-203.20 299.40,-200.60 296.65,-198.95 292.80,-198.40"/>
    </edge>
    <edge id=":J5_4" function="internal">
        <lane id=":J5_4_0" index="0" speed="6.51" length="9.03" shape="292.80,-201.60 295.25,-201.95 297.00,-203.00 298.05,-204.75 298.40,-207.20"/>
    </edge>
    <edge id=":J5_5" function="internal">
        <lane id=":J5_5_0" index="0" speed="8.00" length="14.19" shape="292.80,-201.60 296.65,-201.05 299.40,-199.40 301.05,-196.65 301.60,-192.80"/>
    </edge>
    <edge id=":J5_w0" function="walkingarea">
        <lane id=":J5_w0_0" index="0" allow="pedestrian" speed="2.78" length="10.02" width="6.40" shape="296.80,-192.80 303.20,-192.80 303.20,-207.20 296.80,-207.20 296.36,-204.98 295.80,-204.20 295.02,-203.64 294.02,-203.31 292.80,-203.20 292.80,-196.80 295.02,-196.36 295.80,-195.80 296.36,-195.02 296.69,-194.02"/>
    </edge>
    <edge id=":J6_0" function="internal">
        <lane id=":J6_0_0" index="0" speed="3.90" length="2.58" shape="298.40,-296.80 298.30,-297.50 298.00,-298.00 297.50,-298.30 296.80,-298.40"/>
    </edge>
    <edge id=":J6_1" function="internal">
        <lane id=":J6_1_0" index="0" speed="6.08" length="7.74" shape="296.80,-301.60 298.90,-301.30 300.40,-300.40 301.30,-298.90 301.60,-296.80"/>
    </edge>
    <edge id=":J6_w0" function="walkingarea">
        <lane id=":J6_w0_0" index="0" allow="pedestrian" speed="2.78" length="4.26" width="6.40" shape="296.80,-296.80 303.20,-296.80 302.49,-300.36 301.60,-301.60 300.36,-302.49 298.76,-303.02 296.80,-303.20 296.80,-296.80"/>
    </edge>
    <edge id=":J7_0" function="internal">
        <lane id=":J7_0_0" index="0" speed="6.51" length="9.03" shape="195.20,-292.80 194.85,-295.25 193.80,-297.00 192.05,-298.05 189.60,-298.40"/>
    </edge>
    <edge id=":J7_1" function="internal">
        <lane id=":J7_1_0" index="0" speed="8.67" length="16.85" shape="198.40,-292.80 199.15,-296.65 201.40,-299.40 205.15,-301.05 210.40,-301.60"/>
    </edge>
    <edge id=":J7_2" function="internal">
        <lane id=":J7_2_0" index="0" speed="6.51" length="9.03" shape="210.40,-298.40 207.95,-298.05 206.20,-297.00 205.15,-295.25 204.80,-292.80"/>
    </edge>
    <edge id=":J7_3" function="internal">
        <lane id=":J7_3_0" index="0" speed="13.89" length="20.80" shape="210.40,-298.40 189.60,-298.40"/>
    </edge>
    <edge id=":J7_4" function="internal">
        <lane id=":J7_4_0" index="0" speed="13.89" length="20.80" shape="189.60,-301.60 210.40,-301.60"/>
    </edge>
    <edge id=":J7_5" function="internal">
        <lane id=":J7_5_0" index="0" speed="8.67" length="16.85" shape="189.60,-301.60 194.85,-301.05 198.60,-299.40 200.85,-296.65 201.60,-292.80"/>
    </edge>
    <edge id=":J7_w0" function="walkingarea">
        <lane id=":J7_w0_0" index="0" allow="pedestrian" speed="2.78" length="13.59" width="12.80" shape="193.60,-292.80 206.40,-292.80 206.84,-295.02 207.40,-295.80 208.18,-296.36 209.18,-296.69 210.40,-296.80 210.40,-303.20 189.60,-303.20 189.60,-296.80 191.82,-296.36 192.60,-295.80 193.16,-295.02 193.49,-294.02"/>
    </edge>
    <edge id=":J8_0" function="internal">
        <lane id=":J8_0_0" index="0" speed="6.51" length="9.03" shape="88.80,-292.80 88.45,-295.25 87.40,-297.00 85.65,-298.05 83.20,-298.40"/>
    </edge>
    <edge id=":J8_1" function="internal">
        <lane id=":J8_1_0" index="0" speed="9.94" length="22.48" shape="98.40,-292.80 99.55,-296.65 103.00,-299.40 108.75,-301.05 116.80,-301.60"/>
    </edge>
    <edge id=":J8_2" function="internal">
        <lane id=":J8_2_0" index="0" speed="6.51" length="9.03" shape="116.80,-298.40 114.35,-298.05 112.60,-297.00 111.55,-295.25 111.20,-292.80"/>
        <lane id=":J8_2_1" index="1" speed="7.33" length="11.73" shape="116.80,-298.40 112.95,-298.05 110.20,-297.00 108.55,-295.25 108.00,-292.80"/>