[Config Wireless01]
description = Two hosts communicating wirelessly
network = WirelessA
sim-time-limit = 200s

*.host*.ipv4.arp.typename = "GlobalArp"

*.hostA.numApps = 1
*.hostA.app[0].typename = "UdpBasicApp"
*.hostA.app[0].destAddresses = "host01"
*.hostA.app[0].destPort = 5000
*.hostA.app[0].localPort = 5001
*.hostA.app[0].messageLength = 1000B
*.hostA.app[0].sendInterval = exponential(3s)
*.hostA.app[0].packetName = "UDPData"

*.host0*.numApps = 1
*.host0*.app[0].typename = "UdpEchoApp"
*.host0*.app[0].localPort = 5000

*.host*.wlan[0].typename = "AckingWirelessInterface"
*.host*.wlan[0].mac.useAck = false
*.host*.wlan[0].mac.fullDuplex = false
*.host*.wlan[0].radio.transmitter.communicationRange = 500m
*.host*.wlan[0].radio.receiver.ignoreInterference = true
*.host*.wlan[0].mac.headerLength = 23B

*.host*.**.bitrate = 1Mbps

[Config Wireless02]
description = Change node type
extends = Wireless01

*.hostA.app[0].typename = "DataCollectorApp"
*.host0*.app[0].typename = "SensorApp"
*.host01.app[0].sensorId = 5

[Config Wireless03]
description = Using scenario
network = WirelessB
sim-time-limit = 200s

*.host*.ipv4.arp.typename = "GlobalArp"
*.scenarioManager.script = xmldoc("scenarioA.xml")

*.hostA.numApps = 1
*.hostA.app[0].typename = "DataCollectorApp"
*.hostA.app[0].destAddresses = "host01"
*.hostA.app[0].destPort = 5000
*.hostA.app[0].localPort = 5001
*.hostA.app[0].messageLength = 1000B
*.hostA.app[0].sendInterval = exponential(3s)
*.hostA.app[0].packetName = "UDPData"

*.host0*.numApps = 1
*.host0*.app[0].typename = "SensorApp"
*.host0*.app[0].localPort = 5000

*.host*.wlan[0].typename = "AckingWirelessInterface"
*.host*.wlan[0].mac.useAck = false
*.host*.wlan[0].mac.fullDuplex = false
*.host*.wlan[0].radio.transmitter.communicationRange = 500m
*.host*.wlan[0].radio.receiver.ignoreInterference = true
*.host*.wlan[0].mac.headerLength = 23B

*.host*.**.bitrate = 1Mbps



[Config Wireless04]
description = Node move
extends = Wireless02
sim-time-limit = 2000s
*.hostA.app[0].sendInterval = exponential(33s)

*.host*.wlan[0].radio.transmitter.communicationRange = 50m
*.host*.wlan[0].radio.displayCommunicationRange = true

**.hostA.mobility.typename = "TurtleMobility"
**.hostA.mobility.turtleScript = xmldoc("movements.xml", "movements//movement[@id='1']")

*.host*.wlan[0].queue.packetCapacity = 10

*.visualizer.mobilityVisualizer.displayVelocities = true
*.visualizer.mobilityVisualizer.displayMovementTrails = true

[Config Wireless05]
description = More nodes

network = WirelessC
sim-time-limit = 200s

*.host*.ipv4.arp.typename = "GlobalArp"
*.scenarioManager.script = xmldoc("scenarioB.xml")

*.host*.numApps = 1
*.host*.app[0].typename = "SensorApp"
*.host*.app[0].localPort = 5000
*.host*.wlan[0].typename = "AckingWirelessInterface"
*.host*.wlan[0].mac.useAck = false
*.host*.wlan[0].mac.fullDuplex = false
*.host*.wlan[0].radio.transmitter.communicationRange = 50m
*.host*.wlan[0].radio.receiver.ignoreInterference = true
*.host*.wlan[0].mac.headerLength = 23B
*.host*.**.bitrate = 1Mbps
*.host*.wlan[0].radio.displayCommunicationRange = true

*.mobileHost.numApps = 1
*.mobileHost.app[0].typename = "DataCollectorApp"
*.mobileHost.app[0].destAddresses = "host*"
*.mobileHost.app[0].destPort = 5000
*.mobileHost.app[0].localPort = 5001
*.mobileHost.app[0].messageLength = 1000B
*.mobileHost.app[0].sendInterval = exponential(300s)
*.mobileHost.app[0].packetName = "UDPData"
*.mobileHost.wlan[0].typename = "AckingWirelessInterface"
*.mobileHost.wlan[0].mac.useAck = false
*.mobileHost.wlan[0].mac.fullDuplex = false
*.mobileHost.wlan[0].radio.transmitter.communicationRange = 50m
*.mobileHost.wlan[0].radio.receiver.ignoreInterference = true
*.mobileHost.wlan[0].mac.headerLength = 23B
*.mobileHost.**.bitrate = 1Mbps

*.mobileHost.wlan[0].radio.displayCommunicationRange = true

**.mobileHost.mobility.typename = "TurtleMobility"
**.mobileHost.mobility.turtleScript = xmldoc("movements.xml", "movements//movement[@id='2']")

*.mobileHost.wlan[0].queue.packetCapacity = 10

*.visualizer.mobilityVisualizer.displayVelocities = true
*.visualizer.mobilityVisualizer.displayMovementTrails = true

**.scenarioManager.script = xmldoc("scenario.xml")