[General]

sim-time-limit = 100s

############traces
SN.wirelessChannel.collectTraceInfo = false
SN.node[*].Radio.collectTraceInfo = false
SN.node[*].MAC.collectTraceInfo = false
SN.node[*].Routing.collectTraceInfo = true
SN.node[*].Application.collectTraceInfo = false
SN.node[*].SensorManager.collectTraceInfo = false
SN.node[*].ResourceManager.collectTraceInfo = false

SN.node[*].Radio.TxOutputPower = "15dBm"

SN.node[*].startupOffset = 1
SN.node[*].startupRandomization = 10
###########
SN.node[*].ApplicationName = "ThroughputTest"

###############
SN.node[*].RoutingProtocolName = "PeceeRoutingProtocol"
SN.node[*].Routing.topoCSVAbsPath = ""
################
SN.node[*].Routing.roundLength = 20s

###########
SN.wirelessChannel.onlyStaticNodes = true
SN.wirelessChannel.sigma = 0
SN.wirelessChannel.bidirectionalSigma = 0
SN.wirelessChannel.pathLossExponent = 1.0
SN.wirelessChannel.PLd0 = 40

###########
SN.node[*].Radio.RadioParametersFile = "../Parameters/Radio/CC2420.txt"
SN.node[*].Radio.mode = "IDEAL"
SN.node[*].Radio.collisionModel = 0
###########
SN.node[*].Routing.maxNetFrameSize = 8152
SN.node[*].Routing.isSink = true
SN.node[*].Routing.sinkId = 0
SN.node[*].MAC.macMaxPacketSize = 8152
SN.node[*].Radio.maxPhyFrameSize = 8152

SN.node[*].Radio.bufferSize = 1000
SN.node[*].MAC.macBufferSize = 1000

SN.node[*].MAC.MACProtocolName = "TMAC"

SN.node[*].ResourceManager.initialEnergy = 0.25
SN.node[*].ResourceManager.ramSize = 10.0
SN.node[*].ResourceManager.flashSize = 48.0
SN.node[*].ResourceManager.imageSize = 28.0

SN.node[*].ResourceManager.flashWriteCost = 0.010
SN.node[*].ResourceManager.flashReadCost  = 0.0005

SN.node[*].ResourceManager.cpuPowerSpeedLevelNames = "low medium high"
SN.node[*].ResourceManager.cpuPowerPerLevel        = "0.0001  0.00055  0.0012"
SN.node[*].ResourceManager.cpuSpeedPerLevel        = "1  8  16"
SN.node[*].ResourceManager.cpuInitialPowerLevel    = 1
SN.node[*].ResourceManager.sigmaCPUClockDrift      = 0.00003

SN.node[*].ResourceManager.baselineNodePower = 0

#
SN.numNodes = 2025
SN.field_x = 670
SN.field_y = 670
SN.cellWidth = 100
SN.cellHeight = 100

################### 
SN.node[1].Communication.isCH = true
SN.node[99].Communication.isCH = true
SN.node[199].Communication.isCH = true
SN.node[399].Communication.isCH = true
SN.node[0].xCoor = 1
SN.node[0].yCoor = 1
SN.node[1].xCoor = 16
SN.node[1].yCoor = 1
SN.node[2].xCoor = 31
SN.node[2].yCoor = 1
SN.node[3].xCoor = 46
SN.node[3].yCoor = 1
SN.node[4].xCoor = 61
SN.node[4].yCoor = 1
SN.node[5].xCoor = 76
SN.node[5].yCoor = 1
SN.node[6].xCoor = 91
SN.node[6].yCoor = 1
SN.node[7].xCoor = 106
SN.node[7].yCoor = 1
SN.node[8].xCoor = 121
SN.node[8].yCoor = 1
SN.node[9].xCoor = 136
SN.node[9].yCoor = 1
SN.node[10].xCoor = 151
SN.node[10].yCoor = 1
SN.node[11].xCoor = 166
SN.node[11].yCoor = 1
SN.node[12].xCoor = 181
SN.node[12].yCoor = 1
SN.node[13].xCoor = 196
SN.node[13].yCoor = 1
SN.node[14].xCoor = 211
SN.node[14].yCoor = 1
SN.node[15].xCoor = 226
SN.node[15].yCoor = 1
SN.node[16].xCoor = 241
SN.node[16].yCoor = 1
SN.node[17].xCoor = 256
SN.node[17].yCoor = 1
SN.node[18].xCoor = 271
SN.node[18].yCoor = 1
SN.node[19].xCoor = 286
SN.node[19].yCoor = 1
SN.node[20].xCoor = 301
SN.node[20].yCoor = 1
SN.node[21].xCoor = 316
SN.node[21].yCoor = 1
SN.node[22].xCoor = 331
SN.node[22].yCoor = 1
SN.node[23].xCoor = 346
SN.node[23].yCoor = 1
SN.node[24].xCoor = 361
SN.node[24].yCoor = 1
SN.node[25].xCoor = 376
SN.node[25].yCoor = 1
SN.node[26].xCoor = 391
SN.node[26].yCoor = 1
SN.node[27].xCoor = 406
SN.node[27].yCoor = 1
SN.node[28].xCoor = 421
SN.node[28].yCoor = 1
SN.node[29].xCoor = 436
SN.node[29].yCoor = 1
SN.node[30].xCoor = 451
SN.node[30].yCoor = 1
SN.node[31].xCoor = 466
SN.node[31].yCoor = 1
SN.node[32].xCoor = 481
SN.node[32].yCoor = 1
SN.node[33].xCoor = 496
SN.node[33].yCoor = 1
SN.node[34].xCoor = 511
SN.node[34].yCoor = 1
SN.node[35].xCoor = 526
SN.node[35].yCoor = 1
SN.node[36].xCoor = 541
SN.node[36].yCoor = 1
SN.node[37].xCoor = 556
SN.node[37].yCoor = 1
SN.node[38].xCoor = 571
SN.node[38].yCoor = 1
SN.node[39].xCoor = 586
SN.node[39].yCoor = 1
SN.node[40].xCoor = 601
SN.node[40].yCoor = 1
SN.node[41].xCoor = 616
SN.node[41].yCoor = 1
SN.node[42].xCoor = 631
SN.node[42].yCoor = 1
SN.node[43].xCoor = 646
SN.node[43].yCoor = 1
SN.node[44].xCoor = 661
SN.node[44].yCoor = 1
SN.node[45].xCoor = 1
SN.node[45].yCoor = 16
SN.node[46].xCoor = 16
SN.node[46].yCoor = 16
SN.node[47].xCoor = 31
SN.node[47].yCoor = 16
SN.node[48].xCoor = 46
SN.node[48].yCoor = 16
SN.node[49].xCoor = 61
SN.node[49].yCoor = 16
SN.node[50].xCoor = 76
SN.node[50].yCoor = 16
SN.node[51].xCoor = 91
SN.node[51].yCoor = 16
SN.node[52].xCoor = 106
SN.node[52].yCoor = 16
SN.node[53].xCoor = 121
SN.node[53].yCoor = 16
SN.node[54].xCoor = 136
SN.node[54].yCoor = 16
SN.node[55].xCoor = 151
SN.node[55].yCoor = 16
SN.node[56].xCoor = 166
SN.node[56].yCoor = 16
SN.node[57].xCoor = 181
SN.node[57].yCoor = 16
SN.node[58].xCoor = 196
SN.node[58].yCoor = 16
SN.node[59].xCoor = 211
SN.node[59].yCoor = 16
SN.node[60].xCoor = 226
SN.node[60].yCoor = 16
SN.node[61].xCoor = 241
SN.node[61].yCoor = 16
SN.node[62].xCoor = 256
SN.node[62].yCoor = 16
SN.node[63].xCoor = 271
SN.node[63].yCoor = 16
SN.node[64].xCoor = 286
SN.node[64].yCoor = 16
SN.node[65].xCoor = 301
SN.node[65].yCoor = 16
SN.node[66].xCoor = 316
SN.node[66].yCoor = 16
SN.node[67].xCoor = 331
SN.node[67].yCoor = 16
SN.node[68].xCoor = 346
SN.node[68].yCoor = 16
SN.node[69].xCoor = 361
SN.node[69].yCoor = 16
SN.node[70].xCoor = 376
SN.node[70].yCoor = 16
SN.node[71].xCoor = 391
SN.node[71].yCoor = 16
SN.node[72].xCoor = 406
SN.node[72].yCoor = 16
SN.node[73].xCoor = 421
SN.node[73].yCoor = 16
SN.node[74].xCoor = 436
SN.node[74].yCoor = 16
SN.node[75].xCoor = 451
SN.node[75].yCoor = 16
SN.node[76].xCoor = 466
SN.node[76].yCoor = 16
SN.node[77].xCoor = 481
SN.node[77].yCoor = 16
SN.node[78].xCoor = 496
SN.node[78].yCoor = 16
SN.node[79].xCoor = 511
SN.node[79].yCoor = 16
SN.node[80].xCoor = 526
SN.node[80].yCoor = 16
SN.node[81].xCoor = 541
SN.node[81].yCoor = 16
SN.node[82].xCoor = 556
SN.node[82].yCoor = 16
SN.node[83].xCoor = 571
SN.node[83].yCoor = 16
SN.node[84].xCoor = 586
SN.node[84].yCoor = 16
SN.node[85].xCoor = 601
SN.node[85].yCoor = 16
SN.node[86].xCoor = 616
SN.node[86].yCoor = 16
SN.node[87].xCoor = 631
SN.node[87].yCoor = 16
SN.node[88].xCoor = 646
SN.node[88].yCoor = 16
SN.node[89].xCoor = 661
SN.node[89].yCoor = 16
SN.node[90].xCoor = 1
SN.node[90].yCoor = 31
SN.node[91].xCoor = 16
SN.node[91].yCoor = 31
SN.node[92].xCoor = 31
SN.node[92].yCoor = 31
SN.node[93].xCoor = 46
SN.node[93].yCoor = 31
SN.node[94].xCoor = 61
SN.node[94].yCoor = 31
SN.node[95].xCoor = 76
SN.node[95].yCoor = 31
SN.node[96].xCoor = 91
SN.node[96].yCoor = 31
SN.node[97].xCoor = 106
SN.node[97].yCoor = 31
SN.node[98].xCoor = 121
SN.node[98].yCoor = 31
SN.node[99].xCoor = 136
SN.node[99].yCoor = 31
SN.node[100].xCoor = 151
SN.node[100].yCoor = 31
SN.node[101].xCoor = 166
SN.node[101].yCoor = 31
SN.node[102].xCoor = 181
SN.node[102].yCoor = 31
SN.node[103].xCoor = 196
SN.node[103].yCoor = 31
SN.node[104].xCoor = 211
SN.node[104].yCoor = 31
SN.node[105].xCoor = 226
SN.node[105].yCoor = 31
SN.node[106].xCoor = 241
SN.node[106].yCoor = 31
SN.node[107].xCoor = 256
SN.node[107].yCoor = 31
SN.node[108].xCoor = 271
SN.node[108].yCoor = 31
SN.node[109].xCoor = 286
SN.node[109].yCoor = 31
SN.node[110].xCoor = 301
SN.node[110].yCoor = 31
SN.node[111].xCoor = 316
SN.node[111].yCoor = 31
SN.node[112].xCoor = 331
SN.node[112].yCoor = 31
SN.node[113].xCoor = 346
SN.node[113].yCoor = 31
SN.node[114].xCoor = 361
SN.node[114].yCoor = 31
SN.node[115].xCoor = 376
SN.node[115].yCoor = 31
SN.node[116].xCoor = 391
SN.node[116].yCoor = 31
SN.node[117].xCoor = 406
SN.node[117].yCoor = 31
SN.node[118].xCoor = 421
SN.node[118].yCoor = 31
SN.node[119].xCoor = 436
SN.node[119].yCoor = 31
SN.node[120].xCoor = 451
SN.node[120].yCoor = 31
SN.node[121].xCoor = 466
SN.node[121].yCoor = 31
SN.node[122].xCoor = 481
SN.node[122].yCoor = 31
SN.node[123].xCoor = 496
SN.node[123].yCoor = 31
SN.node[124].xCoor = 511
SN.node[124].yCoor = 31
SN.node[125].xCoor = 526
SN.node[125].yCoor = 31
SN.node[126].xCoor = 541
SN.node[126].yCoor = 31
SN.node[127].xCoor = 556
SN.node[127].yCoor = 31
SN.node[128].xCoor = 571
SN.node[128].yCoor = 31
SN.node[129].xCoor = 586
SN.node[129].yCoor = 31
SN.node[130].xCoor = 601
SN.node[130].yCoor = 31
SN.node[131].xCoor = 616
SN.node[131].yCoor = 31
SN.node[132].xCoor = 631
SN.node[132].yCoor = 31
SN.node[133].xCoor = 646
SN.node[133].yCoor = 31
SN.node[134].xCoor = 661
SN.node[134].yCoor = 31
SN.node[135].xCoor = 1
SN.node[135].yCoor = 46
SN.node[136].xCoor = 16
SN.node[136].yCoor = 46
SN.node[137].xCoor = 31
SN.node[137].yCoor = 46
SN.node[138].xCoor = 46
SN.node[138].yCoor = 46
SN.node[139].xCoor = 61
SN.node[139].yCoor = 46
SN.node[140].xCoor = 76
SN.node[140].yCoor = 46
SN.node[141].xCoor = 91
SN.node[141].yCoor = 46
SN.node[142].xCoor = 106
SN.node[142].yCoor = 46
SN.node[143].xCoor = 121
SN.node[143].yCoor = 46
SN.node[144].xCoor = 136
SN.node[144].yCoor = 46
SN.node[145].xCoor = 151
SN.node[145].yCoor = 46
SN.node[146].xCoor = 166
SN.node[146].yCoor = 46
SN.node[147].xCoor = 181
SN.node[147].yCoor = 46
SN.node[148].xCoor = 196
SN.node[148].yCoor = 46
SN.node[149].xCoor = 211
SN.node[149].yCoor = 46
SN.node[150].xCoor = 226
SN.node[150].yCoor = 46
SN.node[151].xCoor = 241
SN.node[151].yCoor = 46
SN.node[152].xCoor = 256
SN.node[152].yCoor = 46
SN.node[153].xCoor = 271
SN.node[153].yCoor = 46
SN.node[154].xCoor = 286
SN.node[154].yCoor = 46
SN.node[155].xCoor = 301
SN.node[155].yCoor = 46
SN.node[156].xCoor = 316
SN.node[156].yCoor = 46
SN.node[157].xCoor = 331
SN.node[157].yCoor = 46
SN.node[158].xCoor = 346
SN.node[158].yCoor = 46
SN.node[159].xCoor = 361
SN.node[159].yCoor = 46
SN.node[160].xCoor = 376
SN.node[160].yCoor = 46
SN.node[161].xCoor = 391
SN.node[161].yCoor = 46
SN.node[162].xCoor = 406
SN.node[162].yCoor = 46
SN.node[163].xCoor = 421
SN.node[163].yCoor = 46
SN.node[164].xCoor = 436
SN.node[164].yCoor = 46
SN.node[165].xCoor = 451
SN.node[165].yCoor = 46
SN.node[166].xCoor = 466
SN.node[166].yCoor = 46
SN.node[167].xCoor = 481
SN.node[167].yCoor = 46
SN.node[168].xCoor = 496
SN.node[168].yCoor = 46
SN.node[169].xCoor = 511
SN.node[169].yCoor = 46
SN.node[170].xCoor = 526
SN.node[170].yCoor = 46
SN.node[171].xCoor = 541
SN.node[171].yCoor = 46
SN.node[172].xCoor = 556
SN.node[172].yCoor = 46
SN.node[173].xCoor = 571
SN.node[173].yCoor = 46
SN.node[174].xCoor = 586
SN.node[174].yCoor = 46
SN.node[175].xCoor = 601
SN.node[175].yCoor = 46
SN.node[176].xCoor = 616
SN.node[176].yCoor = 46
SN.node[177].xCoor = 631
SN.node[177].yCoor = 46
SN.node[178].xCoor = 646
SN.node[178].yCoor = 46
SN.node[179].xCoor = 661
SN.node[179].yCoor = 46
SN.node[180].xCoor = 1
SN.node[180].yCoor = 61
SN.node[181].xCoor = 16
SN.node[181].yCoor = 61
SN.node[182].xCoor = 31
SN.node[182].yCoor = 61
SN.node[183].xCoor = 46
SN.node[183].yCoor = 61
SN.node[184].xCoor = 61
SN.node[184].yCoor = 61
SN.node[185].xCoor = 76
SN.node[185].yCoor = 61
SN.node[186].xCoor = 91
SN.node[186].yCoor = 61
SN.node[187].xCoor = 106
SN.node[187].yCoor = 61
SN.node[188].xCoor = 121
SN.node[188].yCoor = 61
SN.node[189].xCoor = 136
SN.node[189].yCoor = 61
SN.node[190].xCoor = 151
SN.node[190].yCoor = 61
SN.node[191].xCoor = 166
SN.node[191].yCoor = 61
SN.node[192].xCoor = 181
SN.node[192].yCoor = 61
SN.node[193].xCoor = 196
SN.node[193].yCoor = 61
SN.node[194].xCoor = 211
SN.node[194].yCoor = 61
SN.node[195].xCoor = 226
SN.node[195].yCoor = 61
SN.node[196].xCoor = 241
SN.node[196].yCoor = 61
SN.node[197].xCoor = 256
SN.node[197].yCoor = 61
SN.node[198].xCoor = 271
SN.node[198].yCoor = 61
SN.node[199].xCoor = 286
SN.node[199].yCoor = 61
SN.node[200].xCoor = 301
SN.node[200].yCoor = 61
SN.node[201].xCoor = 316
SN.node[201].yCoor = 61
SN.node[202].xCoor = 331
SN.node[202].yCoor = 61
SN.node[203].xCoor = 346
SN.node[203].yCoor = 61
SN.node[204].xCoor = 361
SN.node[204].yCoor = 61
SN.node[205].xCoor = 376
SN.node[205].yCoor = 61
SN.node[206].xCoor = 391
SN.node[206].yCoor = 61
SN.node[207].xCoor = 406
SN.node[207].yCoor = 61
SN.node[208].xCoor = 421
SN.node[208].yCoor = 61
SN.node[209].xCoor = 436
SN.node[209].yCoor = 61
SN.node[210].xCoor = 451
SN.node[210].yCoor = 61
SN.node[211].xCoor = 466
SN.node[211].yCoor = 61
SN.node[212].xCoor = 481
SN.node[212].yCoor = 61
SN.node[213].xCoor = 496
SN.node[213].yCoor = 61
SN.node[214].xCoor = 511
SN.node[214].yCoor = 61
SN.node[215].xCoor = 526
SN.node[215].yCoor = 61
SN.node[216].xCoor = 541
SN.node[216].yCoor = 61
SN.node[217].xCoor = 556
SN.node[217].yCoor = 61
SN.node[218].xCoor = 571
SN.node[218].yCoor = 61
SN.node[219].xCoor = 586
SN.node[219].yCoor = 61
SN.node[220].xCoor = 601
SN.node[220].yCoor = 61
SN.node[221].xCoor = 616
SN.node[221].yCoor = 61
SN.node[222].xCoor = 631
SN.node[222].yCoor = 61
SN.node[223].xCoor = 646
SN.node[223].yCoor = 61
SN.node[224].xCoor = 661
SN.node[224].yCoor = 61
SN.node[225].xCoor = 1
SN.node[225].yCoor = 76
SN.node[226].xCoor = 16
SN.node[226].yCoor = 76
SN.node[227].xCoor = 31
SN.node[227].yCoor = 76
SN.node[228].xCoor = 46
SN.node[228].yCoor = 76
SN.node[229].xCoor = 61
SN.node[229].yCoor = 76
SN.node[230].xCoor = 76
SN.node[230].yCoor = 76
SN.node[231].xCoor = 91
SN.node[231].yCoor = 76
SN.node[232].xCoor = 106
SN.node[232].yCoor = 76
SN.node[233].xCoor = 121
SN.node[233].yCoor = 76
SN.node[234].xCoor = 136
SN.node[234].yCoor = 76
SN.node[235].xCoor = 151
SN.node[235].yCoor = 76
SN.node[236].xCoor = 166
SN.node[236].yCoor = 76
SN.node[237].xCoor = 181
SN.node[237].yCoor = 76
SN.node[238].xCoor = 196
SN.node[238].yCoor = 76
SN.node[239].xCoor = 211
SN.node[239].yCoor = 76
SN.node[240].xCoor = 226
SN.node[240].yCoor = 76
SN.node[241].xCoor = 241
SN.node[241].yCoor = 76
SN.node[242].xCoor = 256
SN.node[242].yCoor = 76
SN.node[243].xCoor = 271
SN.node[243].yCoor = 76
SN.node[244].xCoor = 286
SN.node[244].yCoor = 76
SN.node[245].xCoor = 301
SN.node[245].yCoor = 76
SN.node[246].xCoor = 316
SN.node[246].yCoor = 76
SN.node[247].xCoor = 331
SN.node[247].yCoor = 76
SN.node[248].xCoor = 346
SN.node[248].yCoor = 76
SN.node[249].xCoor = 361
SN.node[249].yCoor = 76
SN.node[250].xCoor = 376
SN.node[250].yCoor = 76
SN.node[251].xCoor = 391
SN.node[251].yCoor = 76
SN.node[252].xCoor = 406
SN.node[252].yCoor = 76
SN.node[253].xCoor = 421
SN.node[253].yCoor = 76
SN.node[254].xCoor = 436
SN.node[254].yCoor = 76
SN.node[255].xCoor = 451
SN.node[255].yCoor = 76
SN.node[256].xCoor = 466
SN.node[256].yCoor = 76
SN.node[257].xCoor = 481
SN.node[257].yCoor = 76
SN.node[258].xCoor = 496
SN.node[258].yCoor = 76
SN.node[259].xCoor = 511
SN.node[259].yCoor = 76
SN.node[260].xCoor = 526
SN.node[260].yCoor = 76
SN.node[261].xCoor = 541
SN.node[261].yCoor = 76
SN.node[262].xCoor = 556
SN.node[262].yCoor = 76
SN.node[263].xCoor = 571
SN.node[263].yCoor = 76
SN.node[264].xCoor = 586
SN.node[264].yCoor = 76
SN.node[265].xCoor = 601
SN.node[265].yCoor = 76
SN.node[266].xCoor = 616
SN.node[266].yCoor = 76
SN.node[267].xCoor = 631
SN.node[267].yCoor = 76
SN.node[268].xCoor = 646
SN.node[268].yCoor = 76
SN.node[269].xCoor = 661
SN.node[269].yCoor = 76
SN.node[270].xCoor = 1
SN.node[270].yCoor = 91
SN.node[271].xCoor = 16
SN.node[271].yCoor = 91
SN.node[272].xCoor = 31
SN.node[272].yCoor = 91
SN.node[273].xCoor = 46
SN.node[273].yCoor = 91
SN.node[274].xCoor = 61
SN.node[274].yCoor = 91
SN.node[275].xCoor = 76
SN.node[275].yCoor = 91
SN.node[276].xCoor = 91
SN.node[276].yCoor = 91
SN.node[277].xCoor = 106
SN.node[277].yCoor = 91
SN.node[278].xCoor = 121
SN.node[278].yCoor = 91
SN.node[279].xCoor = 136
SN.node[279].yCoor = 91
SN.node[280].xCoor = 151
SN.node[280].yCoor = 91
SN.node[281].xCoor = 166
SN.node[281].yCoor = 91
SN.node[282].xCoor = 181
SN.node[282].yCoor = 91
SN.node[283].xCoor = 196
SN.node[283].yCoor = 91
SN.node[284].xCoor = 211
SN.node[284].yCoor = 91
SN.node[285].xCoor = 226
SN.node[285].yCoor = 91
SN.node[286].xCoor = 241
SN.node[286].yCoor = 91
SN.node[287].xCoor = 256
SN.node[287].yCoor = 91
SN.node[288].xCoor = 271
SN.node[288].yCoor = 91
SN.node[289].xCoor = 286
SN.node[289].yCoor = 91
SN.node[290].xCoor = 301
SN.node[290].yCoor = 91
SN.node[291].xCoor = 316
SN.node[291].yCoor = 91
SN.node[292].xCoor = 331
SN.node[292].yCoor = 91
SN.node[293].xCoor = 346
SN.node[293].yCoor = 91
SN.node[294].xCoor = 361
SN.node[294].yCoor = 91
SN.node[295].xCoor = 376
SN.node[295].yCoor = 91
SN.node[296].xCoor = 391
SN.node[296].yCoor = 91
SN.node[297].xCoor = 406
SN.node[297].yCoor = 91
SN.node[298].xCoor = 421
SN.node[298].yCoor = 91
SN.node[299].xCoor = 436
SN.node[299].yCoor = 91
SN.node[300].xCoor = 451
SN.node[300].yCoor = 91
SN.node[301].xCoor = 466
SN.node[301].yCoor = 91
SN.node[302].xCoor = 481
SN.node[302].yCoor = 91
SN.node[303].xCoor = 496
SN.node[303].yCoor = 91
SN.node[304].xCoor = 511
SN.node[304].yCoor = 91
SN.node[305].xCoor = 526
SN.node[305].yCoor = 91
SN.node[306].xCoor = 541
SN.node[306].yCoor = 91
SN.node[307].xCoor = 556
SN.node[307].yCoor = 91
SN.node[308].xCoor = 571
SN.node[308].yCoor = 91
SN.node[309].xCoor = 586
SN.node[309].yCoor = 91
SN.node[310].xCoor = 601
SN.node[310].yCoor = 91
SN.node[311].xCoor = 616
SN.node[311].yCoor = 91
SN.node[312].xCoor = 631
SN.node[312].yCoor = 91
SN.node[313].xCoor = 646
SN.node[313].yCoor = 91
SN.node[314].xCoor = 661
SN.node[314].yCoor = 91
SN.node[315].xCoor = 1
SN.node[315].yCoor = 106
SN.node[316].xCoor = 16
SN.node[316].yCoor = 106
SN.node[317].xCoor = 31
SN.node[317].yCoor = 106
SN.node[318].xCoor = 46
SN.node[318].yCoor = 106
SN.node[319].xCoor = 61
SN.node[319].yCoor = 106
SN.node[320].xCoor = 76
SN.node[320].yCoor = 106
SN.node[321].xCoor = 91
SN.node[321].yCoor = 106
SN.node[322].xCoor = 106
SN.node[322].yCoor = 106
SN.node[323].xCoor = 121
SN.node[323].yCoor = 106
SN.node[324].xCoor = 136
SN.node[324].yCoor = 106
SN.node[325].xCoor = 151
SN.node[325].yCoor = 106
SN.node[326].xCoor = 166
SN.node[326].yCoor = 106
SN.node[327].xCoor = 181
SN.node[327].yCoor = 106
SN.node[328].xCoor = 196
SN.node[328].yCoor = 106
SN.node[329].xCoor = 211
SN.node[329].yCoor = 106
SN.node[330].xCoor = 226
SN.node[330].yCoor = 106
SN.node[331].xCoor = 241
SN.node[331].yCoor = 106
SN.node[332].xCoor = 256
SN.node[332].yCoor = 106
SN.node[333].xCoor = 271
SN.node[333].yCoor = 106
SN.node[334].xCoor = 286
SN.node[334].yCoor = 106
SN.node[335].xCoor = 301
SN.node[335].yCoor = 106
SN.node[336].xCoor = 316
SN.node[336].yCoor = 106
SN.node[337].xCoor = 331
SN.node[337].yCoor = 106
SN.node[338].xCoor = 346
SN.node[338].yCoor = 106
SN.node[339].xCoor = 361
SN.node[339].yCoor = 106
SN.node[340].xCoor = 376
SN.node[340].yCoor = 106
SN.node[341].xCoor = 391
SN.node[341].yCoor = 106
SN.node[342].xCoor = 406
SN.node[342].yCoor = 106
SN.node[343].xCoor = 421
SN.node[343].yCoor = 106
SN.node[344].xCoor = 436
SN.node[344].yCoor = 106
SN.node[345].xCoor = 451
SN.node[345].yCoor = 106
SN.node[346].xCoor = 466
SN.node[346].yCoor = 106
SN.node[347].xCoor = 481
SN.node[347].yCoor = 106
SN.node[348].xCoor = 496
SN.node[348].yCoor = 106
SN.node[349].xCoor = 511
SN.node[349].yCoor = 106
SN.node[350].xCoor = 526
SN.node[350].yCoor = 106
SN.node[351].xCoor = 541
SN.node[351].yCoor = 106
SN.node[352].xCoor = 556
SN.node[352].yCoor = 106
SN.node[353].xCoor = 571
SN.node[353].yCoor = 106
SN.node[354].xCoor = 586
SN.node[354].yCoor = 106
SN.node[355].xCoor = 601
SN.node[355].yCoor = 106
SN.node[356].xCoor = 616
SN.node[356].yCoor = 106
SN.node[357].xCoor = 631
SN.node[357].yCoor = 106
SN.node[358].xCoor = 646
SN.node[358].yCoor = 106
SN.node[359].xCoor = 661
SN.node[359].yCoor = 106
SN.node[360].xCoor = 1
SN.node[360].yCoor = 121
SN.node[361].xCoor = 16
SN.node[361].yCoor = 121
SN.node[362].xCoor = 31
SN.node[362].yCoor = 121
SN.node[363].xCoor = 46
SN.node[363].yCoor = 121
SN.node[364].xCoor = 61
SN.node[364].yCoor = 121
SN.node[365].xCoor = 76
SN.node[365].yCoor = 121
SN.node[366].xCoor = 91
SN.node[366].yCoor = 121
SN.node[367].xCoor = 106
SN.node[367].yCoor = 121
SN.node[368].xCoor = 121
SN.node[368].yCoor = 121
SN.node[369].xCoor = 136
SN.node[369].yCoor = 121
SN.node[370].xCoor = 151
SN.node[370].yCoor = 121
SN.node[371].xCoor = 166
SN.node[371].yCoor = 121
SN.node[372].xCoor = 181
SN.node[372].yCoor = 121
SN.node[373].xCoor = 196
SN.node[373].yCoor = 121
SN.node[374].xCoor = 211
SN.node[374].yCoor = 121
SN.node[375].xCoor = 226
SN.node[375].yCoor = 121
SN.node[376].xCoor = 241
SN.node[376].yCoor = 121
SN.node[377].xCoor = 256
SN.node[377].yCoor = 121
SN.node[378].xCoor = 271
SN.node[378].yCoor = 121
SN.node[379].xCoor = 286
SN.node[379].yCoor = 121
SN.node[380].xCoor = 301
SN.node[380].yCoor = 121
SN.node[381].xCoor = 316
SN.node[381].yCoor = 121
SN.node[382].xCoor = 331
SN.node[382].yCoor = 121
SN.node[383].xCoor = 346
SN.node[383].yCoor = 121
SN.node[384].xCoor = 361
SN.node[384].yCoor = 121
SN.node[385].xCoor = 376
SN.node[385].yCoor = 121
SN.node[386].xCoor = 391
SN.node[386].yCoor = 121
SN.node[387].xCoor = 406
SN.node[387].yCoor = 121
SN.node[388].xCoor = 421
SN.node[388].yCoor = 121
SN.node[389].xCoor = 436
SN.node[389].yCoor = 121
SN.node[390].xCoor = 451
SN.node[390].yCoor = 121
SN.node[391].xCoor = 466
SN.node[391].yCoor = 121
SN.node[392].xCoor = 481
SN.node[392].yCoor = 121
SN.node[393].xCoor = 496
SN.node[393].yCoor = 121
SN.node[394].xCoor = 511
SN.node[394].yCoor = 121
SN.node[395].xCoor = 526
SN.node[395].yCoor = 121
SN.node[396].xCoor = 541
SN.node[396].yCoor = 121
SN.node[397].xCoor = 556
SN.node[397].yCoor = 121
SN.node[398].xCoor = 571
SN.node[398].yCoor = 121
SN.node[399].xCoor = 586
SN.node[399].yCoor = 121
SN.node[400].xCoor = 601
SN.node[400].yCoor = 121
SN.node[401].xCoor = 616
SN.node[401].yCoor = 121
SN.node[402].xCoor = 631
SN.node[402].yCoor = 121
SN.node[403].xCoor = 646
SN.node[403].yCoor = 121
SN.node[404].xCoor = 661
SN.node[404].yCoor = 121
SN.node[405].xCoor = 1
SN.node[405].yCoor = 136
SN.node[406].xCoor = 16
SN.node[406].yCoor = 136
SN.node[407].xCoor = 31
SN.node[407].yCoor = 136
SN.node[408].xCoor = 46
SN.node[408].yCoor = 136
SN.node[409].xCoor = 61
SN.node[409].yCoor = 136
SN.node[410].xCoor = 76
SN.node[410].yCoor = 136
SN.node[411].xCoor = 91
SN.node[411].yCoor = 136
SN.node[412].xCoor = 106
SN.node[412].yCoor = 136
SN.node[413].xCoor = 121
SN.node[413].yCoor = 136
SN.node[414].xCoor = 136
SN.node[414].yCoor = 136
SN.node[415].xCoor = 151
SN.node[415].yCoor = 136
SN.node[416].xCoor = 166
SN.node[416].yCoor = 136
SN.node[417].xCoor = 181
SN.node[417].yCoor = 136
SN.node[418].xCoor = 196
SN.node[418].yCoor = 136
SN.node[419].xCoor = 211
SN.node[419].yCoor = 136
SN.node[420].xCoor = 226
SN.node[420].yCoor = 136
SN.node[421].xCoor = 241
SN.node[421].yCoor = 136
SN.node[422].xCoor = 256
SN.node[422].yCoor = 136
SN.node[423].xCoor = 271
SN.node[423].yCoor = 136
SN.node[424].xCoor = 286
SN.node[424].yCoor = 136
SN.node[425].xCoor = 301
SN.node[425].yCoor = 136
SN.node[426].xCoor = 316
SN.node[426].yCoor = 136
SN.node[427].xCoor = 331
SN.node[427].yCoor = 136
SN.node[428].xCoor = 346
SN.node[428].yCoor = 136
SN.node[429].xCoor = 361
SN.node[429].yCoor = 136
SN.node[430].xCoor = 376
SN.node[430].yCoor = 136
SN.node[431].xCoor = 391
SN.node[431].yCoor = 136
SN.node[432].xCoor = 406
SN.node[432].yCoor = 136
SN.node[433].xCoor = 421
SN.node[433].yCoor = 136
SN.node[434].xCoor = 436
SN.node[434].yCoor = 136
SN.node[435].xCoor = 451
SN.node[435].yCoor = 136
SN.node[436].xCoor = 466
SN.node[436].yCoor = 136
SN.node[437].xCoor = 481
SN.node[437].yCoor = 136
SN.node[438].xCoor = 496
SN.node[438].yCoor = 136
SN.node[439].xCoor = 511
SN.node[439].yCoor = 136
SN.node[440].xCoor = 526
SN.node[440].yCoor = 136
SN.node[441].xCoor = 541
SN.node[441].yCoor = 136
SN.node[442].xCoor = 556
SN.node[442].yCoor = 136
SN.node[443].xCoor = 571
SN.node[443].yCoor = 136
SN.node[444].xCoor = 586
SN.node[444].yCoor = 136
SN.node[445].xCoor = 601
SN.node[445].yCoor = 136
SN.node[446].xCoor = 616
SN.node[446].yCoor = 136
SN.node[447].xCoor = 631
SN.node[447].yCoor = 136
SN.node[448].xCoor = 646
SN.node[448].yCoor = 136
SN.node[449].xCoor = 661
SN.node[449].yCoor = 136
SN.node[450].xCoor = 1
SN.node[450].yCoor = 151
SN.node[451].xCoor = 16
SN.node[451].yCoor = 151
SN.node[452].xCoor = 31
SN.node[452].yCoor = 151
SN.node[453].xCoor = 46
SN.node[453].yCoor = 151
SN.node[454].xCoor = 61
SN.node[454].yCoor = 151
SN.node[455].xCoor = 76
SN.node[455].yCoor = 151
SN.node[456].xCoor = 91
SN.node[456].yCoor = 151
SN.node[457].xCoor = 106
SN.node[457].yCoor = 151
SN.node[458].xCoor = 121
SN.node[458].yCoor = 151
SN.node[459].xCoor = 136
SN.node[459].yCoor = 151
SN.node[460].xCoor = 151
SN.node[460].yCoor = 151
SN.node[461].xCoor = 166
SN.node[461].yCoor = 151
SN.node[462].xCoor = 181
SN.node[462].yCoor = 151
SN.node[463].xCoor = 196
SN.node[463].yCoor = 151
SN.node[464].xCoor = 211
SN.node[464].yCoor = 151
SN.node[465].xCoor = 226
SN.node[465].yCoor = 151
SN.node[466].xCoor = 241
SN.node[466].yCoor = 151
SN.node[467].xCoor = 256
SN.node[467].yCoor = 151
SN.node[468].xCoor = 271
SN.node[468].yCoor = 151
SN.node[469].xCoor = 286
SN.node[469].yCoor = 151
SN.node[470].xCoor = 301
SN.node[470].yCoor = 151
SN.node[471].xCoor = 316
SN.node[471].yCoor = 151
SN.node[472].xCoor = 331
SN.node[472].yCoor = 151
SN.node[473].xCoor = 346
SN.node[473].yCoor = 151
SN.node[474].xCoor = 361
SN.node[474].yCoor = 151
SN.node[475].xCoor = 376
SN.node[475].yCoor = 151
SN.node[476].xCoor = 391
SN.node[476].yCoor = 151
SN.node[477].xCoor = 406
SN.node[477].yCoor = 151
SN.node[478].xCoor = 421
SN.node[478].yCoor = 151
SN.node[479].xCoor = 436
SN.node[479].yCoor = 151
SN.node[480].xCoor = 451
SN.node[480].yCoor = 151
SN.node[481].xCoor = 466
SN.node[481].yCoor = 151
SN.node[482].xCoor = 481
SN.node[482].yCoor = 151
SN.node[483].xCoor = 496
SN.node[483].yCoor = 151
SN.node[484].xCoor = 511
SN.node[484].yCoor = 151
SN.node[485].xCoor = 526
SN.node[485].yCoor = 151
SN.node[486].xCoor = 541
SN.node[486].yCoor = 151
SN.node[487].xCoor = 556
SN.node[487].yCoor = 151
SN.node[488].xCoor = 571
SN.node[488].yCoor = 151
SN.node[489].xCoor = 586
SN.node[489].yCoor = 151
SN.node[490].xCoor = 601
SN.node[490].yCoor = 151
SN.node[491].xCoor = 616
SN.node[491].yCoor = 151
SN.node[492].xCoor = 631
SN.node[492].yCoor = 151
SN.node[493].xCoor = 646
SN.node[493].yCoor = 151
SN.node[494].xCoor = 661
SN.node[494].yCoor = 151
SN.node[495].xCoor = 1
SN.node[495].yCoor = 166
SN.node[496].xCoor = 16
SN.node[496].yCoor = 166
SN.node[497].xCoor = 31
SN.node[497].yCoor = 166
SN.node[498].xCoor = 46
SN.node[498].yCoor = 166
SN.node[499].xCoor = 61
SN.node[499].yCoor = 166
SN.node[500].xCoor = 76
SN.node[500].yCoor = 166
SN.node[501].xCoor = 91
SN.node[501].yCoor = 166
SN.node[502].xCoor = 106
SN.node[502].yCoor = 166
SN.node[503].xCoor = 121
SN.node[503].yCoor = 166
SN.node[504].xCoor = 136
SN.node[504].yCoor = 166
SN.node[505].xCoor = 151
SN.node[505].yCoor = 166
SN.node[506].xCoor = 166
SN.node[506].yCoor = 166
SN.node[507].xCoor = 181
SN.node[507].yCoor = 166
SN.node[508].xCoor = 196
SN.node[508].yCoor = 166
SN.node[509].xCoor = 211
SN.node[509].yCoor = 166
SN.node[510].xCoor = 226
SN.node[510].yCoor = 166
SN.node[511].xCoor = 241
SN.node[511].yCoor = 166
SN.node[512].xCoor = 256
SN.node[512].yCoor = 166
SN.node[513].xCoor = 271
SN.node[513].yCoor = 166
SN.node[514].xCoor = 286
SN.node[514].yCoor = 166
SN.node[515].xCoor = 301
SN.node[515].yCoor = 166
SN.node[516].xCoor = 316
SN.node[516].yCoor = 166
SN.node[517].xCoor = 331
SN.node[517].yCoor = 166
SN.node[518].xCoor = 346
SN.node[518].yCoor = 166
SN.node[519].xCoor = 361
SN.node[519].yCoor = 166
SN.node[520].xCoor = 376
SN.node[520].yCoor = 166
SN.node[521].xCoor = 391
SN.node[521].yCoor = 166
SN.node[522].xCoor = 406
SN.node[522].yCoor = 166
SN.node[523].xCoor = 421
SN.node[523].yCoor = 166
SN.node[524].xCoor = 436
SN.node[524].yCoor = 166
SN.node[525].xCoor = 451
SN.node[525].yCoor = 166
SN.node[526].xCoor = 466
SN.node[526].yCoor = 166
SN.node[527].xCoor = 481
SN.node[527].yCoor = 166
SN.node[528].xCoor = 496
SN.node[528].yCoor = 166
SN.node[529].xCoor = 511
SN.node[529].yCoor = 166
SN.node[530].xCoor = 526
SN.node[530].yCoor = 166
SN.node[531].xCoor = 541
SN.node[531].yCoor = 166
SN.node[532].xCoor = 556
SN.node[532].yCoor = 166
SN.node[533].xCoor = 571
SN.node[533].yCoor = 166
SN.node[534].xCoor = 586
SN.node[534].yCoor = 166
SN.node[535].xCoor = 601
SN.node[535].yCoor = 166
SN.node[536].xCoor = 616
SN.node[536].yCoor = 166
SN.node[537].xCoor = 631
SN.node[537].yCoor = 166
SN.node[538].xCoor = 646
SN.node[538].yCoor = 166
SN.node[539].xCoor = 661
SN.node[539].yCoor = 166
SN.node[540].xCoor = 1
SN.node[540].yCoor = 181
SN.node[541].xCoor = 16
SN.node[541].yCoor = 181
SN.node[542].xCoor = 31
SN.node[542].yCoor = 181
SN.node[543].xCoor = 46
SN.node[543].yCoor = 181
SN.node[544].xCoor = 61
SN.node[544].yCoor = 181
SN.node[545].xCoor = 76
SN.node[545].yCoor = 181
SN.node[546].xCoor = 91
SN.node[546].yCoor = 181
SN.node[547].xCoor = 106
SN.node[547].yCoor = 181
SN.node[548].xCoor = 121
SN.node[548].yCoor = 181
SN.node[549].xCoor = 136
SN.node[549].yCoor = 181
SN.node[550].xCoor = 151
SN.node[550].yCoor = 181
SN.node[551].xCoor = 166
SN.node[551].yCoor = 181
SN.node[552].xCoor = 181
SN.node[552].yCoor = 181
SN.node[553].xCoor = 196
SN.node[553].yCoor = 181
SN.node[554].xCoor = 211
SN.node[554].yCoor = 181
SN.node[555].xCoor = 226
SN.node[555].yCoor = 181
SN.node[556].xCoor = 241
SN.node[556].yCoor = 181
SN.node[557].xCoor = 256
SN.node[557].yCoor = 181
SN.node[558].xCoor = 271
SN.node[558].yCoor = 181
SN.node[559].xCoor = 286
SN.node[559].yCoor = 181
SN.node[560].xCoor = 301
SN.node[560].yCoor = 181
SN.node[561].xCoor = 316
SN.node[561].yCoor = 181
SN.node[562].xCoor = 331
SN.node[562].yCoor = 181
SN.node[563].xCoor = 346
SN.node[563].yCoor = 181
SN.node[564].xCoor = 361
SN.node[564].yCoor = 181
SN.node[565].xCoor = 376
SN.node[565].yCoor = 181
SN.node[566].xCoor = 391
SN.node[566].yCoor = 181
SN.node[567].xCoor = 406