<?xml version="1.0" encoding="UTF-8"?>

<!-- generated on 2025-03-15 10:18:28 by Eclipse SUMO netedit Version 1.22.0
<neteditConfiguration xmlns:xsi="http://www.w3.org/2001/XMLSchema-instance" xsi:noNamespaceSchemaLocation="http://sumo.dlr.de/xsd/neteditConfiguration.xsd">

    <input>
        <sumo-net-file value="C:\Users\vuduc\OneDrive\Documents\OMNet++\workspace5.6\sumo\sumo3\sumo3.net.xml"/>
    </input>

    <output>
        <output-file value="C:\Users\vuduc\OneDrive\Documents\OMNet++\workspace5.6\sumo\sumo3\sumo3.net.xml"/>
    </output>

    <processing>
        <geometry.min-radius.fix.railways value="false"/>
        <geometry.max-grade.fix value="false"/>
        <offset.disable-normalization value="true"/>
        <lefthand value="0"/>
    </processing>

    <junctions>
        <no-internal-links value="false"/>
        <no-turnarounds value="true"/>
        <junctions.corner-detail value="5"/>
        <junctions.limit-turn-speed value="5.50"/>
        <rectangular-lane-cut value="0"/>
    </junctions>

    <pedestrian>
        <walkingareas value="0"/>
    </pedestrian>

</neteditConfiguration>
-->

<net version="1.20" junctionCornerDetail="5" limitTurnSpeed="5.50" xmlns:xsi="http://www.w3.org/2001/XMLSchema-instance" xsi:noNamespaceSchemaLocation="http://sumo.dlr.de/xsd/net_file.xsd">

    <location netOffset="0.00,0.00" convBoundary="0.00,-300.00,400.00,100.00" origBoundary="-10000000000.00,-10000000000.00,10000000000.00,10000000000.00" projParameter="!"/>

    <edge id=":J0_0" function="internal">
        <lane id=":J0_0_0" index="0" disallow="pedestrian" speed="13.89" length="10.40" shape="-1.60,5.20 -1.60,-5.20"/>
    </edge>
    <edge id=":J0_1" function="internal">
        <lane id=":J0_1_0" index="0" disallow="pedestrian" speed="7.58" length="3.14" shape="-1.60,5.20 -1.05,2.23 -0.98,2.13"/>
    </edge>
    <edge id=":J0_6" function="internal">
        <lane id=":J0_6_0" index="0" disallow="pedestrian" speed="7.58" length="9.48" shape="-0.98,2.13 0.60,0.10 3.35,-1.17 7.20,-1.60"/>
    </edge>
    <edge id=":J0_2" function="internal">
        <lane id=":J0_2_0" index="0" disallow="pedestrian" speed="5.99" length="7.49" shape="7.20,1.60 4.75,1.83 3.00,2.50 1.95,3.63 1.60,5.20"/>
    </edge>
    <edge id=":J0_3" function="internal">
        <lane id=":J0_3_0" index="0" speed="7.58" length="12.62" shape="7.20,1.60 3.35,1.17 0.60,-0.10 -1.05,-2.23 -1.60,-5.20"/>
    </edge>
    <edge id=":J0_4" function="internal">
        <lane id=":J0_4_0" index="0" speed="5.99" length="7.49" shape="1.60,-5.20 1.95,-3.62 3.00,-2.50 4.75,-1.82 7.20,-1.60"/>
    </edge>
    <edge id=":J0_5" function="internal">
        <lane id=":J0_5_0" index="0" disallow="pedestrian" speed="13.89" length="10.40" shape="1.60,-5.20 1.60,5.20"/>
    </edge>
    <edge id=":J0_w0" function="walkingarea">
        <lane id=":J0_w0_0" index="0" allow="pedestrian" speed="2.78" length="8.90" width="3.20" shape="3.20,5.20 5.20,5.20 7.20,3.20 7.20,0.00 7.20,-3.20 3.20,-5.20 0.00,-5.20 -3.20,-5.20 -5.20,5.20 -3.20,5.20"/>
    </edge>
    <edge id=":J1_0" function="internal">
        <lane id=":J1_0_0" index="0" disallow="pedestrian" speed="6.51" length="9.03" shape="98.40,7.20 98.05,4.75 97.00,3.00 95.25,1.95 92.80,1.60"/>
    </edge>
    <edge id=":J1_1" function="internal">
        <lane id=":J1_1_0" index="0" disallow="pedestrian" speed="13.89" length="14.40" shape="98.40,7.20 98.40,-7.20"/>
    </edge>
    <edge id=":J1_2" function="internal">
        <lane id=":J1_2_0" index="0" disallow="pedestrian" speed="8.00" length="14.19" shape="98.40,7.20 98.95,3.35 100.60,0.60 103.35,-1.05 107.20,-1.60"/>
    </edge>
    <edge id=":J1_3" function="internal">
        <lane id=":J1_3_0" index="0" disallow="pedestrian" speed="6.51" length="9.03" shape="107.20,1.60 104.75,1.95 103.00,3.00 101.95,4.75 101.60,7.20"/>
    </edge>
    <edge id=":J1_4" function="internal">
        <lane id=":J1_4_0" index="0" disallow="pedestrian" speed="13.89" length="14.40" shape="107.20,1.60 92.80,1.60"/>
    </edge>
    <edge id=":J1_5" function="internal">
        <lane id=":J1_5_0" index="0" disallow="pedestrian" speed="8.00" length="2.51" shape="107.20,1.60 104.71,1.24"/>
    </edge>
    <edge id=":J1_12" function="internal">
        <lane id=":J1_12_0" index="0" disallow="pedestrian" speed="8.00" length="11.68" shape="104.71,1.24 103.35,1.05 100.60,-0.60 98.95,-3.35 98.40,-7.20"/>
    </edge>
    <edge id=":J1_6" function="internal">
        <lane id=":J1_6_0" index="0" disallow="pedestrian" speed="6.51" length="9.03" shape="101.60,-7.20 101.95,-4.75 103.00,-3.00 104.75,-1.95 107.20,-1.60"/>
    </edge>
    <edge id=":J1_7" function="internal">
        <lane id=":J1_7_0" index="0" disallow="pedestrian" speed="13.89" length="14.40" shape="101.60,-7.20 101.60,7.20"/>
    </edge>
    <edge id=":J1_8" function="internal">
        <lane id=":J1_8_0" index="0" speed="8.00" length="14.19" shape="101.60,-7.20 101.05,-3.35 99.40,-0.60 96.65,1.05 92.80,1.60"/>
    </edge>
    <edge id=":J1_9" function="internal">
        <lane id=":J1_9_0" index="0" speed="6.51" length="9.03" shape="92.80,-1.60 95.25,-1.95 97.00,-3.00 98.05,-4.75 98.40,-7.20"/>
    </edge>
    <edge id=":J1_10" function="internal">
        <lane id=":J1_10_0" index="0" disallow="pedestrian" speed="13.89" length="14.40" shape="92.80,-1.60 107.20,-1.60"/>
    </edge>
    <edge id=":J1_11" function="internal">
        <lane id=":J1_11_0" index="0" disallow="pedestrian" speed="8.00" length="14.19" shape="92.80,-1.60 96.65,-1.05 99.40,0.60 101.05,3.35 101.60,7.20"/>
    </edge>
    <edge id=":J1_w0" function="walkingarea">
        <lane id=":J1_w0_0" index="0" allow="pedestrian" speed="2.78" length="10.36" width="3.20" shape="107.20,-3.20 107.20,-5.20 103.20,-7.20 100.00,-7.20 96.80,-7.20 92.80,-3.20 92.80,0.00 92.80,3.20 94.80,7.20 96.80,7.20 97.09,4.02 97.96,1.42 99.40,-0.60 101.42,-2.04 104.02,-2.91"/>
    </edge>
    <edge id=":J1_w1" function="walkingarea">
        <lane id=":J1_w1_0" index="0" allow="pedestrian" speed="2.78" length="4.24" width="2.00" shape="103.20,7.20 105.20,7.20 107.20,5.20 107.20,3.20 105.98,3.31 104.98,3.64 104.20,4.20 103.64,4.98 103.31,5.98"/>
    </edge>
    <edge id=":J10_0" function="internal">
        <lane id=":J10_0_0" index="0" speed="13.89" length="14.40" shape="-1.60,-192.80 -1.60,-207.20"/>
    </edge>
    <edge id=":J10_1" function="internal">
        <lane id=":J10_1_0" index="0" speed="8.00" length="4.07" shape="-1.60,-192.80 -1.05,-196.65 -0.96,-196.80"/>
    </edge>
    <edge id=":J10_6" function="internal">
        <lane id=":J10_6_0" index="0" speed="8.00" length="10.13" shape="-0.96,-196.80 0.60,-199.40 3.35,-201.05 7.20,-201.60"/>
    </edge>
    <edge id=":J10_2" function="internal">
        <lane id=":J10_2_0" index="0" speed="6.51" length="9.03" shape="7.20,-198.40 4.75,-198.05 3.00,-197.00 1.95,-195.25 1.60,-192.80"/>
    </edge>
    <edge id=":J10_3" function="internal">
        <lane id=":J10_3_0" index="0" speed="8.00" length="14.19" shape="7.20,-198.40 3.35,-198.95 0.60,-200.60 -1.05,-203.35 -1.60,-207.20"/>
    </edge>
    <edge id=":J10_4" function="internal">
        <lane id=":J10_4_0" index="0" speed="6.51" length="9.03" shape="1.60,-207.20 1.95,-204.75 3.00,-203.00 4.75,-201.95 7.20,-201.60"/>
    </edge>
    <edge id=":J10_5" function="internal">
        <lane id=":J10_5_0" index="0" speed="13.89" length="14.40" shape="1.60,-207.20 1.60,-192.80"/>
    </edge>
    <edge id=":J10_w0" function="walkingarea">
        <lane id=":J10_w0_0" index="0" allow="pedestrian" speed="2.78" length="10.02" width="6.40" shape="-3.20,-192.80 3.20,-192.80 3.64,-195.02 4.20,-195.80 4.98,-196.36 5.98,-196.69 7.20,-196.80 7.20,-203.20 4.98,-203.64 4.20,-204.20 3.64,-204.98 3.31,-205.98 3.20,-207.20 -3.20,-207.20"/>
    </edge>
    <edge id=":J11_0" function="internal">
        <lane id=":J11_0_0" index="0" speed="13.89" length="14.40" shape="-1.60,-92.80 -1.60,-107.20"/>
    </edge>
    <edge id=":J11_1" function="internal">
        <lane id=":J11_1_0" index="0" speed="8.00" length="4.07" shape="-1.60,-92.80 -1.05,-96.65 -0.96,-96.80"/>
    </edge>
    <edge id=":J11_6" function="internal">
        <lane id=":J11_6_0" index="0" speed="8.00" length="10.13" shape="-0.96,-96.80 0.60,-99.40 3.35,-101.05 7.20,-101.60"/>
    </edge>
    <edge id=":J11_2" function="internal">
        <lane id=":J11_2_0" index="0" speed="6.51" length="9.03" shape="7.20,-98.40 4.75,-98.05 3.00,-97.00 1.95,-95.25 1.60,-92.80"/>
    </edge>
    <edge id=":J11_3" function="internal">
        <lane id=":J11_3_0" index="0" speed="8.00" length="14.19" shape="7.20,-98.40 3.35,-98.95 0.60,-100.60 -1.05,-103.35 -1.60,-107.20"/>
    </edge>
    <edge id=":J11_4" function="internal">
        <lane id=":J11_4_0" index="0" speed="6.51" length="9.03" shape="1.60,-107.20 1.95,-104.75 3.00,-103.00 4.75,-101.95 7.20,-101.60"/>
    </edge>
    <edge id=":J11_5" function="internal">
        <lane id=":J11_5_0" index="0" speed="13.89" length="14.40" shape="1.60,-107.20 1.60,-92.80"/>
    </edge>
    <edge id=":J11_w0" function="walkingarea">
        <lane id=":J11_w0_0" index="0" allow="pedestrian" speed="2.78" length="10.02" width="6.40" shape="-3.20,-92.80 3.20,-92.80 3.64,-95.02 4.20,-95.80 4.98,-96.36 5.98,-96.69 7.20,-96.80 7.20,-103.20 4.98,-103.64 4.20,-104.20 3.64,-104.98 3.31,-105.98 3.20,-107.20 -3.20,-107.20"/>
    </edge>
    <edge id=":J12_0" function="internal">
        <lane id=":J12_0_0" index="0" speed="6.51" length="9.03" shape="98.40,-92.80 98.05,-95.25 97.00,-97.00 95.25,-98.05 92.80,-98.40"/>
    </edge>
    <edge id=":J12_1" function="internal">
        <lane id=":J12_1_0" index="0" speed="13.89" length="14.40" shape="98.40,-92.80 98.40,-107.20"/>
    </edge>
    <edge id=":J12_2" function="internal">
        <lane id=":J12_2_0" index="0" speed="8.00" length="4.07" shape="98.40,-92.80 98.95,-96.65 99.04,-96.80"/>
    </edge>
    <edge id=":J12_12" function="internal">
        <lane id=":J12_12_0" index="0" speed="8.00" length="10.13" shape="99.04,-96.80 100.60,-99.40 103.35,-101.05 107.20,-101.60"/>
    </edge>
    <edge id=":J12_3" function="internal">
        <lane id=":J12_3_0" index="0" speed="6.51" length="9.03" shape="107.20,-98.40 104.75,-98.05 103.00,-97.00 101.95,-95.25 101.60,-92.80"/>
    </edge>
    <edge id=":J12_4" function="internal">
        <lane id=":J12_4_0" index="0" speed="13.89" length="14.40" shape="107.20,-98.40 92.80,-98.40"/>
    </edge>
    <edge id=":J12_5" function="internal">
        <lane id=":J12_5_0" index="0" speed="8.00" length="14.19" shape="107.20,-98.40 103.35,-98.95 100.60,-100.60 98.95,-103.35 98.40,-107.20"/>
    </edge>
    <edge id=":J12_6" function="internal">
        <lane id=":J12_6_0" index="0" speed="6.51" length="9.03" shape="101.60,-107.20 101.95,-104.75 103.00,-103.00 104.75,-101.95 107.20,-101.60"/>
    </edge>
    <edge id=":J12_7" function="internal">
        <lane id=":J12_7_0" index="0" speed="13.89" length="14.40" shape="101.60,-107.20 101.60,-92.80"/>
    </edge>
    <edge id=":J12_8" function="internal">
        <lane id=":J12_8_0" index="0" speed="8.00" length="4.07" shape="101.60,-107.20 101.05,-103.35 100.96,-103.20"/>
    </edge>
    <edge id=":J12_13" function="internal">
        <lane id=":J12_13_0" index="0" speed="8.00" length="10.13" shape="100.96,-103.20 99.40,-100.60 96.65,-98.95 92.80,-98.40"/>
    </edge>
    <edge id=":J12_9" function="internal">
        <lane id=":J12_9_0" index="0" speed="6.51" length="9.03" shape="92.80,-101.60 95.25,-101.95 97.00,-103.00 98.05,-104.75 98.40,-107.20"/>
    </edge>
    <edge id=":J12_10" function="internal">
        <lane id=":J12_10_0" index="0" speed="13.89" length="14.40" shape="92.80,-101.60 107.20,-101.60"/>
    </edge>
    <edge id=":J12_11" function="internal">
        <lane id=":J12_11_0" index="0" speed="8.00" length="14.19" shape="92.80,-101.60 96.65,-101.05 99.40,-99.40 101.05,-96.65 101.60,-92.80"/>
    </edge>
    <edge id=":J12_w0" function="walkingarea">
        <lane id=":J12_w0_0" index="0" allow="pedestrian" speed="2.78" length="10.51" width="6.40" shape="96.80,-92.80 103.20,-92.80 103.64,-95.02 104.20,-95.80 104.98,-96.36 105.98,-96.69 107.20,-96.80 107.20,-103.20 104.98,-103.64 104.20,-104.20 103.64,-104.98 103.31,-105.98 103.20,-107.20 96.80,-107.20 96.36,-104.98 95.80,-104.20 95.02,-103.64 94.02,-103.31 92.80,-103.20 92.80,-96.80 95.02,-96.36 95.80,-95.80 96.36,-95.02 96.69,-94.02"/>
    </edge>
    <edge id=":J13_0" function="internal">
        <lane id=":J13_0_0" index="0" speed="7.82" length="13.49" shape="198.40,-87.60 198.05,-92.33 197.00,-95.70 195.25,-97.73 192.80,-98.40"/>
    </edge>
    <edge id=":J13_1" function="internal">
        <lane id=":J13_1_0" index="0" speed="13.89" length="24.80" shape="198.40,-87.60 198.40,-112.40"/>
    </edge>
    <edge id=":J13_2" function="internal">
        <lane id=":J13_2_0" index="0" disallow="pedestrian" speed="9.08" length="18.58" shape="198.40,-87.60 198.95,-93.72 200.60,-98.10 203.35,-100.72 207.20,-101.60"/>
    </edge>
    <edge id=":J13_3" function="internal">
        <lane id=":J13_3_0" index="0" disallow="pedestrian" speed="7.02" length="10.69" shape="207.20,-95.20 204.75,-94.72 203.00,-93.30 201.95,-90.93 201.60,-87.60"/>
    </edge>
    <edge id=":J13_4" function="internal">
        <lane id=":J13_4_0" index="0" disallow="pedestrian" speed="13.89" length="14.83" shape="207.20,-95.20 202.54,-95.70 199.11,-96.80 196.12,-97.90 192.80,-98.40"/>
    </edge>
    <edge id=":J13_5" function="internal">
        <lane id=":J13_5_0" index="0" disallow="pedestrian" speed="9.08" length="3.26" shape="207.20,-98.40 204.02,-99.12"/>
    </edge>
    <edge id=":J13_12" function="internal">
        <lane id=":J13_12_0" index="0" disallow="pedestrian" speed="9.08" length="15.32" shape="204.02,-99.12 203.35,-99.28 200.60,-101.90 198.95,-106.28 198.40,-112.40"/>
    </edge>
    <edge id=":J13_6" function="internal">
        <lane id=":J13_6_0" index="0" disallow="pedestrian" speed="7.02" length="10.69" shape="201.60,-112.40 201.95,-109.08 203.00,-106.70 204.75,-105.27 207.20,-104.80"/>
    </edge>
    <edge id=":J13_7" function="internal">
        <lane id=":J13_7_0" index="0" speed="13.89" length="24.80" shape="201.60,-112.40 201.60,-87.60"/>
    </edge>
    <edge id=":J13_8" function="internal">
        <lane id=":J13_8_0" index="0" speed="9.08" length="18.58" shape="201.60,-112.40 201.05,-106.28 199.40,-101.90 196.65,-99.28 192.80,-98.40"/>
    </edge>
    <edge id=":J13_9" function="internal">
        <lane id=":J13_9_0" index="0" speed="7.82" length="13.49" shape="192.80,-101.60 195.25,-102.28 197.00,-104.30 198.05,-107.67 198.40,-112.40"/>
    </edge>
    <edge id=":J13_10" function="internal">
        <lane id=":J13_10_0" index="0" disallow="pedestrian" speed="13.89" length="14.40" shape="192.80,-101.60 207.20,-101.60"/>
    </edge>
    <edge id=":J13_11" function="internal">
        <lane id=":J13_11_0" index="0" speed="9.08" length="4.48" shape="192.80,-101.60 196.65,-100.72 197.03,-100.36"/>
    </edge>
    <edge id=":J13_13" function="internal">
        <lane id=":J13_13_0" index="0" speed="9.08" length="14.10" shape="197.03,-100.36 199.40,-98.10 201.05,-93.72 201.60,-87.60"/>
    </edge>
    <edge id=":J13_w0" function="walkingarea">
        <lane id=":J13_w0_0" index="0" allow="pedestrian" speed="2.78" length="15.15" width="3.20" shape="207.20,-106.40 207.20,-108.40 203.20,-112.40 200.00,-112.40 196.80,-112.40 192.80,-103.20 192.80,-100.00 192.80,-96.80 196.80,-87.60 200.00,-87.60 203.20,-87.60 207.20,-91.60 207.20,-93.60"/>
    </edge>
    <edge id=":J14_0" function="internal">
        <lane id=":J14_0_0" index="0" speed="6.51" length="9.03" shape="98.40,-192.80 98.05,-195.25 97.00,-197.00 95.25,-198.05 92.80,-198.40"/>
    </edge>
    <edge id=":J14_1" function="internal">
        <lane id=":J14_1_0" index="0" speed="13.89" length="14.40" shape="98.40,-192.80 98.40,-207.20"/>
    </edge>
    <edge id=":J14_2" function="internal">
        <lane id=":J14_2_0" index="0" speed="8.00" length="4.07" shape="98.40,-192.80 98.95,-196.65 99.04,-196.80"/>
    </edge>
    <edge id=":J14_12" function="internal">
        <lane id=":J14_12_0" index="0" speed="8.00" length="10.13" shape="99.04,-196.80 100.60,-199.40 103.35,-201.05 107.20,-201.60"/>
    </edge>
    <edge id=":J14_3" function="internal">
        <lane id=":J14_3_0" index="0" speed="6.51" length="9.03" shape="107.20,-198.40 104.75,-198.05 103.00,-197.00 101.95,-195.25 101.60,-192.80"/>
    </edge>
    <edge id=":J14_4" function="internal">
        <lane id=":J14_4_0" index="0" speed="13.89" length="14.40" shape="107.20,-198.40 92.80,-198.40"/>
    </edge>
    <edge id=":J14_5" function="internal">
        <lane id=":J14_5_0" index="0" speed="8.00" length="14.19" shape="107.20,-198.40 103.35,-198.95 100.60,-200.60 98.95,-203.35 98.40,-207.20"/>
    </edge>
    <edge id=":J14_6" function="internal">
        <lane id=":J14_6_0" index="0" speed="6.51" length="9.03" shape="101.60,-207.20 101.95,-204.75 103.00,-203.00 104.75,-201.95 107.20,-201.60"/>
    </edge>
    <edge id=":J14_7" function="internal">
        <lane id=":J14_7_0" index="0" speed="13.89" length="14.40" shape="101.60,-207.20 101.60,-192.80"/>
    </edge>
    <edge id=":J14_8" function="internal">
        <lane id=":J14_8_0" index="0" speed="8.00" length="4.07" shape="101.60,-207.20 101.05,-203.35 100.96,-203.20"/>
    </edge>
    <edge id=":J14_13" function="internal">
        <lane id=":J14_13_0" index="0" speed="8.00" length="10.13" shape="100.96,-203.20 99.40,-200.60 96.65,-198.95 92.80,-198.40"/>
    </edge>
    <edge id=":J14_9" function="internal">
        <lane id=":J14_9_0" index="0" speed="6.51" length="9.03" shape="92.80,-201.60 95.25,-201.95 97.00,-203.00 98.05,-204.75 98.40,-207.20"/>
    </edge>
    <edge id=":J14_10" function="internal">
        <lane id=":J14_10_0" index="0" speed="13.89" length="14.40" shape="92.80,-201.60 107.20,-201.60"/>
    </edge>
    <edge id=":J14_11" function="internal">
        <lane id=":J14_11_0" index="0" speed="8.00" length="14.19" shape="92.80,-201.60 96.65,-201.05 99.40,-199.40 101.05,-196.65 101.60,-192.80"/>
    </edge>
    <edge id=":J14_w0" function="walkingarea">
        <lane id=":J14_w0_0" index="0" allow="pedestrian" speed="2.78" length="10.51" width="6.40" shape="96.80,-192.80 103.20,-192.80 103.64,-195.02 104.20,-195.80 104.98,-196.36 105.98,-196.69 107.20,-196.80 107.20,-203.20 104.98,-203.64 104.20,-204.20 103.64,-204.98 103.31,-205.98 103.20,-207.20 96.80,-207.20 96.36,-204.98 95.80,-204.20 95.02,-203.64 94.02,-203.31 92.80,-203.20 92.80,-196.80 95.02,-196.36 95.80,-195.80 96.36,-195.02 96.69,-194.02"/>
    </edge>
    <edge id=":J15_0" function="internal">
        <lane id=":J15_0_0" index="0" speed="7.02" length="10.69" shape="198.40,-190.80 198.05,-194.13 197.00,-196.50 195.25,-197.93 192.80,-198.40"/>
    </edge>
    <edge id=":J15_1" function="internal">
        <lane id=":J15_1_0" index="0" speed="13.89" length="18.40" shape="198.40,-190.80 198.40,-209.20"/>
    </edge>
    <edge id=":J15_2" function="internal">
        <lane id=":J15_2_0" index="0" disallow="pedestrian" speed="8.42" length="15.84" shape="198.40,-190.80 198.95,-195.53 200.60,-198.90 203.35,-200.92 207.20,-201.60"/>
    </edge>
    <edge id=":J15_3" function="internal">
        <lane id=":J15_3_0" index="0" disallow="pedestrian" speed="7.02" length="10.69" shape="207.20,-198.40 204.75,-197.93 203.00,-196.50 201.95,-194.12 201.60,-190.80"/>
    </edge>
    <edge id=":J15_4" function="internal">
        <lane id=":J15_4_0" index="0" disallow="pedestrian" speed="13.89" length="14.40" shape="207.20,-198.40 192.80,-198.40"/>
    </edge>
    <edge id=":J15_5" function="internal">
        <lane id=":J15_5_0" index="0" disallow="pedestrian" speed="8.42" length="3.91" shape="207.20,-198.40 203.35,-199.07"/>
    </edge>
    <edge id=":J15_12" function="internal">
        <lane id=":J15_12_0" index="0" disallow="pedestrian" speed="8.42" length="11.93" shape="203.35,-199.07 200.60,-201.10 198.95,-204.48 198.40,-209.20"/>
    </edge>
    <edge id=":J15_6" function="internal">
        <lane id=":J15_6_0" index="0" disallow="pedestrian" speed="7.02" length="10.69" shape="201.60,-209.20 201.95,-205.88 203.00,-203.50 204.75,-202.07 207.20,-201.60"/>
    </edge>
    <edge id=":J15_7" function="internal">
        <lane id=":J15_7_0" index="0" speed="13.89" length="18.40" shape="201.60,-209.20 201.60,-190.80"/>
    </edge>
    <edge id=":J15_8" function="internal">
        <lane id=":J15_8_0" index="0" speed="8.42" length="15.84" shape="201.60,-209.20 201.05,-204.47 199.40,-201.10 196.65,-199.08 192.80,-198.40"/>
    </edge>
    <edge id=":J15_9" function="internal">
        <lane id=":J15_9_0" index="0" speed="7.02" length="10.69" shape="192.80,-201.60 195.25,-202.07 197.00,-203.50 198.05,-205.88 198.40,-209.20"/>
    </edge>
    <edge id=":J15_10" function="internal">
        <lane id=":J15_10_0" index="0" disallow="pedestrian" speed="13.89" length="14.40" shape="192.80,-201.60 207.20,-201.60"/>
    </edge>
    <edge id=":J15_11" function="internal">
        <lane id=":J15_11_0" index="0" speed="8.42" length="3.91" shape="192.80,-201.60 196.65,-200.93"/>
    </edge>
    <edge id=":J15_13" function="internal">
        <lane id=":J15_13_0" index="0" speed="8.42" length="11.93" shape="196.65,-200.93 199.40,-198.90 201.05,-195.52 201.60,-190.80"/>
    </edge>
    <edge id=":J15_w0" function="walkingarea">
        <lane id=":J15_w0_0" index="0" allow="pedestrian" speed="2.78" length="12.26" width="3.20" shape="207.20,-203.20 207.20,-205.20 203.20,-209.20 200.00,-209.20 196.80,-209.20 192.80,-203.20 192.80,-200.00 192.80,-196.80 196.80,-190.80 200.00,-190.80 203.20,-190.80 207.20,-194.80 207.20,-196.80"/>
    </edge>
    <edge id=":J16_0" function="internal">
        <lane id=":J16_0_0" index="0" disallow="pedestrian" speed="7.10" length="10.97" shape="5.20,101.60 2.22,101.17 0.10,99.90 -1.17,97.78 -1.60,94.80"/>
    </edge>
    <edge id=":J16_1" function="internal">
        <lane id=":J16_1_0" index="0" disallow="pedestrian" speed="5.37" length="5.81" shape="1.60,94.80 1.82,96.38 2.50,97.50 3.62,98.18 5.20,98.40"/>
    </edge>
    <edge id=":J16_w0" function="walkingarea">
        <lane id=":J16_w0_0" index="0" allow="pedestrian" speed="2.78" length="13.29" width="2.00" shape="-3.20,94.80 -5.20,94.80 -4.91,97.98 -4.04,100.58 -2.60,102.60 -0.58,104.04 2.02,104.91 5.20,105.20 5.20,103.20 2.63,102.97 0.53,102.27 -1.10,101.10 -2.27,99.47 -2.97,97.37"/>
    </edge>
    <edge id=":J16_w1" function="walkingarea">
        <lane id=":J16_w1_0" index="0" allow="pedestrian" speed="2.78" length="1.41" width="2.00" shape="5.20,96.80 5.20,94.80 3.20,94.80 3.26,95.41 3.42,95.91 3.70,96.30 4.09,96.58 4.59,96.74"/>
    </edge>
    <edge id=":J17_0" function="internal">
        <lane id=":J17_0_0" index="0" disallow="pedestrian" speed="13.89" length="14.40" shape="107.20,101.60 92.80,101.60"/>
    </edge>
    <edge id=":J17_1" function="internal">
        <lane id=":J17_1_0" index="0" disallow="pedestrian" speed="8.00" length="4.07" shape="107.20,101.60 103.35,101.05 103.20,100.96"/>
    </edge>
    <edge id=":J17_6" function="internal">
        <lane id=":J17_6_0" index="0" disallow="pedestrian" speed="8.00" length="10.13" shape="103.20,100.96 100.60,99.40 98.95,96.65 98.40,92.80"/>
    </edge>
    <edge id=":J17_2" function="internal">
        <lane id=":J17_2_0" index="0" disallow="pedestrian" speed="6.51" length="9.03" shape="101.60,92.80 101.95,95.25 103.00,97.00 104.75,98.05 107.20,98.40"/>
    </edge>
    <edge id=":J17_3" function="internal">
        <lane id=":J17_3_0" index="0" disallow="pedestrian" speed="8.00" length="14.19" shape="101.60,92.80 101.05,96.65 99.40,99.40 96.65,101.05 92.80,101.60"/>
    </edge>
    <edge id=":J17_4" function="internal">
        <lane id=":J17_4_0" index="0" disallow="pedestrian" speed="6.51" length="9.03" shape="92.80,98.40 95.25,98.05 97.00,97.00 98.05,95.25 98.40,92.80"/>
    </edge>
    <edge id=":J17_5" function="internal">
        <lane id=":J17_5_0" index="0" disallow="pedestrian" speed="13.89" length="14.40" shape="92.80,98.40 107.20,98.40"/>
    </edge>
    <edge id=":J17_w0" function="walkingarea">
        <lane id=":J17_w0_0" index="0" allow="pedestrian" speed="2.78" length="14.40" width="2.00" shape="92.80,103.20 92.80,105.20 107.20,105.20 107.20,103.20"/>
    </edge>
    <edge id=":J17_w1" function="walkingarea">
        <lane id=":J17_w1_0" index="0" allow="pedestrian" speed="2.78" length="4.24" width="2.00" shape="107.20,96.80 107.20,94.80 105.20,92.80 103.20,92.80 103.31,94.02 103.64,95.02 104.20,95.80 104.98,96.36 105.98,96.69"/>
    </edge>
    <edge id=":J17_w2" function="walkingarea">
        <lane id=":J17_w2_0" index="0" allow="pedestrian" speed="2.78" length="4.24" width="2.00" shape="96.80,92.80 94.80,92.80 92.80,94.80 92.80,96.80 94.02,96.69 95.02,96.36 95.80,95.80 96.36,95.02 96.69,94.02"/>
    </edge>
    <edge id=":J18_0" function="internal">
        <lane id=":J18_0_0" index="0" disallow="pedestrian" speed="13.89" length="14.40" shape="207.20,101.60 192.80,101.60"/>
    </edge>
    <edge id=":J18_1" function="internal">
        <lane id=":J18_1_0" index="0" disallow="pedestrian" speed="8.00" length="4.07" shape="207.20,101.60 203.35,101.05 203.20,100.96"/>
    </edge>
    <edge id=":J18_6" function="internal">
        <lane id=":J18_6_0" index="0" disallow="pedestrian" speed="8.00" length="10.13" shape="203.20,100.96 200.60,99.40 198.95,96.65 198.40,92.80"/>
    </edge>
    <edge id=":J18_2" function="internal">
        <lane id=":J18_2_0" index="0" disallow="pedestrian" speed="6.51" length="9.03" shape="201.60,92.80 201.95,95.25 203.00,97.00 204.75,98.05 207.20,98.40"/>
    </edge>
    <edge id=":J18_3" function="internal">
        <lane id=":J18_3_0" index="0" disallow="pedestrian" speed="8.00" length="14.19" shape="201.60,92.80 201.05,96.65 199.40,99.40 196.65,101.05 192.80,101.60"/>
    </edge>
    <edge id=":J18_4" function="internal">
        <lane id=":J18_4_0" index="0" disallow="pedestrian" speed="6.51" length="9.03" shape="192.80,98.40 195.25,98.05 197.00,97.00 198.05,95.25 198.40,92.80"/>
    </edge>
    <edge id=":J18_5" function="internal">
        <lane id=":J18_5_0" index="0" disallow="pedestrian" speed="13.89" length="14.40" shape="192.80,98.40 207.20,98.40"/>
    </edge>
    <edge id=":J18_w0" function="walkingarea">
        <lane id=":J18_w0_0" index="0" allow="pedestrian" speed="2.78" length="14.40" width="2.00" shape="192.80,103.20 192.80,105.20 207.20,105.20 207.20,103.20"/>
    </edge>
    <edge id=":J18_w1" function="walkingarea">
        <lane id=":J18_w1_0" index="0" allow="pedestrian" speed="2.78" length="4.24" width="2.00" shape="207.20,96.80 207.20,94.80 205.20,92.80 203.20,92.80 203.31,94.02 203.64,95.02 204.20,95.80 204.98,96.36 205.98,96.69"/>
    </edge>
    <edge id=":J18_w2" function="walkingarea">
        <lane id=":J18_w2_0" index="0" allow="pedestrian" speed="2.78" length="4.24" width="2.00" shape="196.80,92.80 194.80,92.80 192.80,94.80 192.80,96.80 194.02,96.69 195.02,96.36 195.80,95.80 196.36,95.02 196.69,94.02"/>
    </edge>
    <edge id=":J19_0" function="internal">
        <lane id=":J19_0_0" index="0" disallow="pedestrian" speed="13.89" length="14.40" shape="307.20,101.60 292.80,101.60"/>
    </edge>
    <edge id=":J19_1" function="internal">
        <lane id=":J19_1_0" index="0" disallow="pedestrian" speed="8.00" length="4.07" shape="307.20,101.60 303.35,101.05 303.20,100.96"/>
    </edge>
    <edge id=":J19_6" function="internal">
        <lane id=":J19_6_0" index="0" disallow="pedestrian" speed="8.00" length="10.13" shape="303.20,100.96 300.60,99.40 298.95,96.65 298.40,92.80"/>
    </edge>
    <edge id=":J19_2" function="internal">
        <lane id=":J19_2_0" index="0" disallow="pedestrian" speed="6.51" length="9.03" shape="301.60,92.80 301.95,95.25 303.00,97.00 304.75,98.05 307.20,98.40"/>
    </edge>
    <edge id=":J19_3" function="internal">
        <lane id=":J19_3_0" index="0" disallow="pedestrian" speed="8.00" length="14.19" shape="301.60,92.80 301.05,96.65 299.40,99.40 296.65,101.05 292.80,101.60"/>
    </edge>
    <edge id=":J19_4" function="internal">
        <lane id=":J19_4_0" index="0" disallow="pedestrian" speed="6.51" length="9.03" shape="292.80,98.40 295.25,98.05 297.00,97.00 298.05,95.25 298.40,92.80"/>
    </edge>
    <edge id=":J19_5" function="internal">
        <lane id=":J19_5_0" index="0" disallow="pedestrian" speed="13.89" length="14.40" shape="292.80,98.40 307.20,98.40"/>
    </edge>
    <edge id=":J19_w0" function="walkingarea">
        <lane id=":J19_w0_0" index="0" allow="pedestrian" speed="2.78" length="14.40" width="2.00" shape="292.80,103.20 292.80,105.20 307.20,105.20 307.20,103.20"/>
    </edge>
    <edge id=":J19_w1" function="walkingarea">
        <lane id=":J19_w1_0" index="0" allow="pedestrian" speed="2.78" length="4.24" width="2.00" shape="307.20,96.80 307.20,94.80 305.20,92.80 303.20,92.80 303.31,94.02 303.64,95.02 304.20,95.80 304.98,96.36 305.98,96.69"/>
    </edge>
    <edge id=":J19_w2" function="walkingarea">
        <lane id=":J19_w2_0" index="0" allow="pedestrian" speed="2.78" length="4.24" width="2.00" shape="296.80,92.80 294.80,92.80 292.80,94.80 292.80,96.80 294.02,96.69 295.02,96.36 295.80,95.80 296.36,95.02 296.69,94.02"/>
    </edge>
    <edge id=":J2_0" function="internal">
        <lane id=":J2_0_0" index="0" disallow="pedestrian" speed="13.89" length="3.00" shape="198.40,1.50 198.40,-1.50"/>
    </edge>
    <edge id=":J2_1" function="internal">
        <lane id=":J2_1_0" index="0" disallow="pedestrian" speed="13.89" length="3.00" shape="201.60,-1.50 201.60,1.50"/>
    </edge>
    <edge id=":J2_w0" function="walkingarea">