<?xml version="1.0" encoding="UTF-8"?>

<!-- generated on 2025-03-15 10:18:42 by Eclipse SUMO netedit Version 1.22.0
-->

<routes xmlns:xsi="http://www.w3.org/2001/XMLSchema-instance" xsi:noNamespaceSchemaLocation="http://sumo.dlr.de/xsd/routes_file.xsd">
    <!-- Vehicles, persons and containers (sorted by depart) -->
    <flow id="f_0" begin="0.00" from="-E39" to="E38" via="-E40 -E38 -E16 -E23" end="3600.00" vehsPerHour="1800"/>
    <flow id="f_1" begin="0.00" from="-E35" to="E35" via="-E23 -E38" end="3600.00" vehsPerHour="1800"/>
    <person id="p_0" depart="0.00">
        <personTrip from="E40" to="E35"/>
    </person>
    <person id="p_1" depart="0.00">
        <personTrip from="-E38" to="-E40"/>
    </person>
    <person id="p_2" depart="0.00">
        <personTrip from="-E35" to="E39"/>
    </person>
    <person id="p_3" depart="0.00">
        <personTrip from="-E39" to="-E38"/>
    </person>
    <person id="p_4" depart="0.00">
        <personTrip from="E38" to="-E40"/>
    </person>
    <person id="p_5" depart="0.00">
        <personTrip from="E30" to="E38"/>
    </person>
</routes>
