<?xml version="1.0" encoding="UTF-8"?>

<!-- generated on 2025-03-15 00:00:02 by Eclipse SUMO netedit Version 1.22.0
-->

<routes xmlns:xsi="http://www.w3.org/2001/XMLSchema-instance" xsi:noNamespaceSchemaLocation="http://sumo.dlr.de/xsd/routes_file.xsd">
    <!-- Vehicles, persons and containers (sorted by depart) -->
    <trip id="t_0" depart="0.00" from="E12" to="-E8" via="E13 -E5 -E1"/>
    <trip id="t_1" depart="0.00" from="E12" to="E15" via="-E15"/>
    <trip id="t_2" depart="0.00" from="-E2" to="-E11"/>
    <flow id="f_0" begin="0.00" from="E17" to="E20" end="1200.00" vehsPerHour="1000"/>
    <flow id="f_1" begin="0.00" from="-E8" to="-E7" end="1200.00" vehsPerHour="1000"/>
</routes>
