<?xml version="1.0" encoding="UTF-8"?>

<!-- generated on 2025-03-15 00:02:40 by Eclipse SUMO sumo Version 1.22.0
-->

<sumoConfiguration xmlns:xsi="http://www.w3.org/2001/XMLSchema-instance" xsi:noNamespaceSchemaLocation="http://sumo.dlr.de/xsd/sumoConfiguration.xsd">

    <input>
        <net-file value="sumo3x3.net.xml"/>
        <route-files value="sumocfg.rou.xml"/>
    </input>

</sumoConfiguration>
