<nodes>
	<node id="1" x="9.077" y="5.634" type="priority"/>
	<node id="2" x="46.011" y="5.634" type="priority"/>
	<node id="3" x="64.791" y="28.483" type="priority"/>
	<node id="4" x="177.784" y="28.483" type="priority"/>
	<node id="5" x="146.797" y="42.255" type="priority"/>
	<node id="6" x="9.077" y="140.537" type="priority"/>
	<node id="7" x="29.422" y="58.844" type="priority"/>
	<node id="8" x="64.791" y="98.595" type="priority"/>
	<node id="9" x="141.789" y="98.595" type="priority"/>
	<node id="10" x="115.497" y="58.844" type="priority"/>
	<node id="11" x="86.388" y="68.547" type="priority"/>
	<node id="12" x="174.96699" y="5.634" type="priority"/>
	<node id="13" x="238.506" y="5.634" type="priority"/>
	<node id="14" x="43.819998" y="126.765" type="priority"/>
	<node id="15" x="86.388" y="126.765" type="priority"/>
	<node id="16" x="134.59" y="128.95599" type="priority"/>
	<node id="17" x="177.784" y="128.95599" type="priority"/>
	<node id="18" x="209.70999" y="138.659" type="priority"/>
	<node id="19" x="236.628" y="138.659" type="priority"/>
	<node id="20" x="236.628" y="108.298" type="priority"/>
</nodes>