<?xml version="1.0" encoding="UTF-8"?>

<!-- generated on 2024-10-26 22:44:43 by Eclipse SUMO netconvert Version 1.21.0
<netconvertConfiguration xmlns:xsi="http://www.w3.org/2001/XMLSchema-instance" xsi:noNamespaceSchemaLocation="http://sumo.dlr.de/xsd/netconvertConfiguration.xsd">

    <input>
        <node-files value="algsim.nod.xml"/>
        <edge-files value="algsim.edg.xml"/>
    </input>

    <output>
        <output-file value="algsim.net.xml"/>
    </output>

</netconvertConfiguration>
-->

<net version="1.20" junctionCornerDetail="5" limitTurnSpeed="5.50" xmlns:xsi="http://www.w3.org/2001/XMLSchema-instance" xsi:noNamespaceSchemaLocation="http://sumo.dlr.de/xsd/net_file.xsd">

    <location netOffset="-9.08,-5.63" convBoundary="0.00,0.00,229.43,134.90" origBoundary="9.08,5.63,238.51,140.54" projParameter="!"/>

    <edge id=":10_0" function="internal">
        <lane id=":10_0_0" index="0" speed="7.09" length="8.74" shape="107.66,63.78 106.00,61.74 104.23,60.48 102.36,59.99 100.37,60.29"/>
        <lane id=":10_0_1" index="1" speed="8.52" length="12.96" shape="110.32,62.01 107.93,59.13 105.30,57.37 102.45,56.75 99.36,57.25"/>
    </edge>
    <edge id=":10_2" function="internal">
        <lane id=":10_2_0" index="0" speed="14.00" length="12.18" shape="111.93,55.72 108.64,57.39 106.30,58.36 103.89,59.15 100.37,60.29"/>
        <lane id=":10_2_1" index="1" speed="14.00" length="12.18" shape="110.43,52.90 107.28,54.49 105.04,55.41 102.73,56.17 99.36,57.25"/>
    </edge>
    <edge id=":11_0" function="internal">
        <lane id=":11_0_0" index="0" speed="6.11" length="6.81" shape="78.83,67.47 77.03,67.80 75.48,67.54 74.16,66.66 73.09,65.19"/>
        <lane id=":11_0_1" index="1" speed="3.92" length="2.27" shape="77.82,64.43 77.22,64.54 76.70,64.45 76.26,64.16 75.90,63.67"/>
    </edge>
    <edge id=":13_0" function="internal">
        <lane id=":13_0_0" index="0" speed="3.65" length="1.44" shape="218.94,-1.60 220.14,-0.80"/>
    </edge>
    <edge id=":13_3" function="internal">
        <lane id=":13_3_0" index="0" speed="3.65" length="3.23" shape="220.14,-0.80 220.54,0.00 220.14,0.80 218.94,1.60"/>
    </edge>
    <edge id=":13_1" function="internal">
        <lane id=":13_1_0" index="0" speed="6.48" length="9.03" shape="224.48,10.42 224.16,7.96 223.14,6.21 221.39,5.15 218.94,4.80"/>
        <lane id=":13_1_1" index="1" speed="7.98" length="14.25" shape="227.68,10.47 227.18,6.59 225.56,3.82 222.81,2.15 218.94,1.60"/>
    </edge>
    <edge id=":15_0" function="internal">
        <lane id=":15_0_0" index="0" speed="14.00" length="2.20" shape="75.83,116.33 78.38,116.37"/>
        <lane id=":15_0_1" index="1" speed="14.00" length="2.20" shape="76.39,119.53 78.24,119.57"/>
    </edge>
    <edge id=":15_2" function="internal">
        <lane id=":15_2_0" index="0" speed="3.78" length="4.87" shape="76.39,119.53 77.77,120.13 78.33,120.88 78.06,121.78 76.98,122.82"/>
    </edge>
    <edge id=":16_0" function="internal">
        <lane id=":16_0_0" index="0" speed="5.82" length="13.50" shape="87.08,116.77 91.89,116.71 93.67,115.94 92.41,114.47 88.12,112.29"/>
        <lane id=":16_0_1" index="1" speed="7.36" length="22.74" shape="87.08,116.77 95.33,116.68 98.47,115.41 96.49,112.97 89.39,109.36"/>
    </edge>
    <edge id=":16_2" function="internal">
        <lane id=":16_2_0" index="0" speed="14.00" length="27.85" shape="87.08,116.77 114.80,118.52"/>
        <lane id=":16_2_1" index="1" speed="14.00" length="27.85" shape="86.93,119.97 114.80,121.72"/>
    </edge>
    <edge id=":17_0" function="internal">
        <lane id=":17_0_0" index="0" speed="8.67" length="8.63" shape="170.26,113.41 171.37,116.10 172.55,118.13 173.80,119.52 175.11,120.25"/>
        <lane id=":17_0_1" index="1" speed="9.97" length="11.59" shape="167.25,114.49 168.69,117.87 170.33,120.46 172.16,122.28 174.18,123.31"/>
    </edge>
    <edge id=":17_2" function="internal">
        <lane id=":17_2_0" index="0" speed="14.00" length="10.49" shape="164.38,118.52 167.62,118.57 169.83,118.79 172.00,119.31 175.11,120.25"/>
        <lane id=":17_2_1" index="1" speed="14.00" length="10.49" shape="164.33,121.72 167.30,121.77 169.33,121.97 171.33,122.45 174.18,123.31"/>
    </edge>
    <edge id=":17_4" function="internal">
        <lane id=":17_4_0" index="0" speed="14.00" length="10.50" shape="164.38,118.45 167.62,118.55 169.83,118.79 172.00,119.32 175.11,120.25"/>
        <lane id=":17_4_1" index="1" speed="14.00" length="10.50" shape="164.33,121.65 167.30,121.74 169.34,121.97 171.33,122.45 174.18,123.31"/>
    </edge>
    <edge id=":18_0" function="internal">
        <lane id=":18_0_0" index="0" speed="11.27" length="3.94" shape="200.14,127.56 201.08,127.95 201.76,128.15 202.46,128.22 203.49,128.22"/>
        <lane id=":18_0_1" index="1" speed="12.70" length="3.94" shape="199.20,130.64 200.40,131.13 201.27,131.36 202.18,131.43 203.49,131.43"/>
    </edge>
    <edge id=":18_2" function="internal">
        <lane id=":18_2_0" index="0" speed="14.00" length="3.95" shape="200.06,127.83 201.05,128.11 201.74,128.22 202.46,128.23 203.49,128.22"/>
        <lane id=":18_2_1" index="1" speed="14.00" length="3.95" shape="199.12,130.89 200.38,131.25 201.27,131.40 202.17,131.43 203.49,131.43"/>
    </edge>
    <edge id=":19_0" function="internal">
        <lane id=":19_0_0" index="0" speed="6.48" length="8.94" shape="217.24,128.22 219.65,127.88 221.37,126.83 222.41,125.09 222.75,122.65"/>
        <lane id=":19_0_1" index="1" speed="7.29" length="11.60" shape="217.24,128.22 221.05,127.88 223.77,126.84 225.41,125.11 225.95,122.69"/>
    </edge>
    <edge id=":19_2" function="internal">
        <lane id=":19_2_0" index="0" speed="6.54" length="9.03" shape="217.24,128.22 219.69,127.88 221.44,126.83 222.51,125.09 222.90,122.65"/>
        <lane id=":19_2_1" index="1" speed="8.03" length="14.14" shape="217.24,131.43 221.07,130.88 223.82,129.24 225.50,126.51 226.10,122.69"/>
    </edge>
    <edge id=":2_0" function="internal">
        <lane id=":2_0_0" index="0" speed="5.53" length="9.49" shape="54.48,4.80 51.54,5.16 50.11,6.23 50.19,8.01 51.78,10.51"/>
    </edge>
    <edge id=":2_1" function="internal">
        <lane id=":2_1_0" index="0" speed="10.25" length="18.42" shape="54.48,1.60 48.64,2.08 44.12,3.51 40.93,5.91 39.08,9.26"/>
    </edge>
    <edge id=":2_2" function="internal">
        <lane id=":2_2_0" index="0" speed="14.00" length="11.65" shape="32.93,-4.80 34.75,-3.72 38.09,-0.47 41.34,3.16"/>
    </edge>
    <edge id=":2_3" function="internal">
        <lane id=":2_3_0" index="0" speed="6.84" length="12.42" shape="32.93,-1.60 35.44,-0.98 36.79,0.88 36.99,3.97 36.02,8.30"/>
    </edge>
    <edge id=":2_4" function="internal">
        <lane id=":2_4_0" index="0" speed="14.00" length="12.31" shape="41.34,3.16 42.94,4.95 49.31,12.54"/>
    </edge>
    <edge id=":3_0" function="internal">
        <lane id=":3_0_0" index="0" speed="5.56" length="11.49" shape="65.42,50.97 63.27,47.64 61.74,46.73 60.82,48.25 60.51,52.21"/>
    </edge>
    <edge id=":3_1" function="internal">
        <lane id=":3_1_0" index="0" speed="10.10" length="32.01" shape="68.24,49.45 63.05,39.12 59.61,30.08 59.12,23.68 62.74,21.25"/>
    </edge>
    <edge id=":3_2" function="internal">
        <lane id=":3_2_0" index="0" speed="9.12" length="8.89" shape="54.96,14.37 56.58,15.98 58.42,17.13 60.47,17.82 62.74,18.05"/>
    </edge>
    <edge id=":3_3" function="internal">
        <lane id=":3_3_0" index="0" speed="14.00" length="37.70" shape="54.96,14.37 58.51,22.14 60.12,32.44 60.54,43.17 60.51,52.21"/>
        <lane id=":3_3_1" index="1" speed="14.00" length="37.70" shape="52.49,16.41 55.92,23.85 57.28,33.45 57.45,43.48 57.31,52.21"/>
    </edge>
    <edge id=":4_0" function="internal">
        <lane id=":4_0_0" index="0" speed="8.93" length="24.40" shape="164.71,18.05 169.86,19.75 171.18,24.21 169.71,30.50 166.49,37.67"/>
        <lane id=":4_0_1" index="1" speed="7.63" length="17.46" shape="164.71,21.25 167.12,22.18 167.75,24.99 166.59,29.67 163.64,36.21"/>
    </edge>
    <edge id=":4_2" function="internal">
        <lane id=":4_2_0" index="0" speed="6.35" length="16.09" shape="164.71,21.25 167.58,22.56 166.98,25.66 164.00,29.26 159.74,32.09"/>
        <lane id=":4_2_1" index="1" speed="6.60" length="17.55" shape="164.71,21.25 168.64,21.74 168.91,23.23 165.51,25.70 158.44,29.16"/>
    </edge>
    <edge id=":5_0" function="internal">
        <lane id=":5_0_0" index="0" speed="6.67" length="8.99" shape="148.49,37.09 146.53,38.35 145.41,40.02 145.12,42.10 145.67,44.59"/>
        <lane id=":5_0_1" index="1" speed="7.47" length="11.52" shape="148.49,37.09 145.24,38.90 143.19,40.94 142.32,43.19 142.65,45.67"/>
    </edge>
    <edge id=":5_2" function="internal">
        <lane id=":5_2_0" index="0" speed="14.00" length="14.06" shape="148.49,37.09 135.87,43.03"/>
        <lane id=":5_2_1" index="1" speed="14.00" length="14.06" shape="147.19,34.16 134.37,40.21"/>
    </edge>
    <edge id=":6_0" function="internal">
        <lane id=":6_0_0" index="0" speed="8.75" length="22.70" shape="11.18,137.79 3.68,138.31 -1.19,136.74 -3.44,133.08 -3.06,127.32"/>
        <lane id=":6_0_1" index="1" speed="7.38" length="15.76" shape="10.62,134.64 5.17,135.08 1.59,134.15 -0.12,131.83 0.04,128.12"/>
    </edge>
    <edge id=":6_2" function="internal">
        <lane id=":6_2_0" index="0" speed="8.69" length="34.07" shape="4.80,129.35 4.31,116.63 2.84,112.05 0.38,115.62 -3.06,127.32"/>
        <lane id=":6_2_1" index="1" speed="4.30" length="6.76" shape="1.60,128.52 1.50,126.00 1.21,125.09 0.72,125.80 0.04,128.12"/>
    </edge>
    <edge id=":7_0" function="internal">
        <lane id=":7_0_0" index="0" speed="9.12" length="17.09" shape="27.69,45.79 27.88,48.25 29.94,50.85 33.88,53.61 39.68,56.52"/>
    </edge>
    <edge id=":7_1" function="internal">
        <lane id=":7_1_0" index="0" speed="12.69" length="21.87" shape="24.63,44.83 24.80,47.64 26.70,51.64 30.32,56.82 35.65,63.20"/>
    </edge>
    <edge id=":7_2" function="internal">
        <lane id=":7_2_0" index="0" speed="9.94" length="13.18" shape="14.83,55.51 17.31,53.31 22.51,53.64 26.96,55.01"/>
    </edge>
    <edge id=":7_3" function="internal">
        <lane id=":7_3_0" index="0" speed="7.91" length="20.18" shape="17.93,56.28 19.96,54.41 23.63,56.03 28.28,60.04 33.26,65.32"/>
    </edge>
    <edge id=":7_4" function="internal">
        <lane id=":7_4_0" index="0" speed="9.94" length="12.27" shape="26.96,55.01 29.76,55.88 38.39,59.45"/>
    </edge>
    <edge id=":8_0" function="internal">
        <lane id=":8_0_0" index="0" speed="6.81" length="8.77" shape="57.47,98.96 54.76,95.98 56.27,92.41 56.98,91.91"/>
        <lane id=":8_0_1" index="1" speed="6.42" length="9.00" shape="58.74,96.02 55.18,93.98 55.23,92.53 58.57,91.72"/>
    </edge>
    <edge id=":8_6" function="internal">
        <lane id=":8_6_0" index="0" speed="6.81" length="10.06" shape="56.98,91.91 60.53,89.42 66.11,88.16"/>
    </edge>
    <edge id=":8_7" function="internal">
        <lane id=":8_7_0" index="0" speed="6.42" length="7.56" shape="58.57,91.72 58.87,91.65 66.11,91.36"/>
    </edge>
    <edge id=":8_2" function="internal">
        <lane id=":8_2_0" index="0" speed="7.33" length="11.75" shape="60.51,79.33 60.86,83.20 61.91,85.95 63.66,87.61 66.11,88.16"/>
        <lane id=":8_2_1" index="1" speed="8.68" length="16.88" shape="57.31,79.33 57.86,84.60 59.51,88.35 62.26,90.61 66.11,91.36"/>
    </edge>
    <edge id=":8_4" function="internal">
        <lane id=":8_4_0" index="0" speed="12.57" length="16.26" shape="51.86,81.41 55.00,84.36 58.43,86.47 62.13,87.74 66.11,88.16"/>
        <lane id=":8_4_1" index="1" speed="13.55" length="18.96" shape="49.47,83.54 53.12,86.96 57.11,89.40 61.44,90.87 66.11,91.36"/>
    </edge>
    <edge id=":9_0" function="internal">
        <lane id=":9_0_0" index="0" speed="9.30" length="16.51" shape="140.31,88.67 135.76,93.52 130.54,93.17 126.87,90.34"/>
        <lane id=":9_0_1" index="1" speed="8.11" length="14.55" shape="137.46,87.21 134.82,90.14 131.46,90.01 127.39,86.82 126.13,85.18"/>
    </edge>
    <edge id=":9_4" function="internal">
        <lane id=":9_4_0" index="0" speed="9.30" length="10.65" shape="126.87,90.34 125.11,88.98 119.93,82.34"/>
    </edge>
    <edge id=":9_5" function="internal">
        <lane id=":9_5_0" index="0" speed="8.11" length="5.79" shape="126.13,85.18 122.60,80.58"/>
    </edge>
    <edge id=":9_2" function="internal">
        <lane id=":9_2_0" index="0" speed="5.61" length="9.31" shape="116.81,88.16 119.62,87.80 121.08,86.71 121.18,84.89 119.93,82.34"/>
        <lane id=":9_2_1" index="1" speed="7.39" length="17.26" shape="116.81,91.36 122.02,90.69 124.72,88.66 124.92,85.29 122.60,80.58"/>
    </edge>

    <edge id="e1" from="1" to="2" priority="2">
        <lane id="e1_0" index="0" speed="14.00" length="25.03" shape="7.90,-4.80 32.93,-4.80"/>
        <lane id="e1_1" index="1" speed="14.00" length="25.03" shape="7.90,-1.60 32.93,-1.60"/>
    </edge>
    <edge id="e10" from="6" to="7" priority="2">
        <lane id="e10_0" index="0" speed="14.00" length="74.02" shape="-3.06,127.32 14.83,55.51"/>
        <lane id="e10_1" index="1" speed="14.00" length="74.02" shape="0.04,128.12 17.93,56.28"/>
    </edge>
    <edge id="e11" from="7" to="8" priority="2">
        <lane id="e11_0" index="0" speed="14.00" length="24.38" shape="35.65,63.20 51.86,81.41"/>
        <lane id="e11_1" index="1" speed="14.00" length="24.38" shape="33.26,65.32 49.47,83.54"/>
    </edge>
    <edge id="e12" from="8" to="9" priority="2">
        <lane id="e12_0" index="0" speed="14.00" length="50.69" shape="66.11,88.16 116.81,88.16"/>
        <lane id="e12_1" index="1" speed="14.00" length="50.69" shape="66.11,91.36 116.81,91.36"/>
    </edge>
    <edge id="e13" from="9" to="10" priority="2">
        <lane id="e13_0" index="0" speed="14.00" length="22.26" shape="119.93,82.34 107.66,63.78"/>
        <lane id="e13_1" index="1" speed="14.00" length="22.26" shape="122.60,80.58 110.32,62.01"/>
    </edge>
    <edge id="e14" from="10" to="11" priority="2">
        <lane id="e14_0" index="0" speed="14.00" length="22.71" shape="100.37,60.29 78.83,67.47"/>
        <lane id="e14_1" index="1" speed="14.00" length="22.71" shape="99.36,57.25 77.82,64.43"/>
    </edge>
    <edge id="e15" from="12" to="13" priority="2">
        <lane id="e15_0" index="0" speed="14.00" length="53.05" shape="165.89,-4.80 218.94,-4.80"/>
        <lane id="e15_1" index="1" speed="14.00" length="53.05" shape="165.89,-1.60 218.94,-1.60"/>
    </edge>
    <edge id="e16" from="14" to="15" priority="2">
        <lane id="e16_0" index="0" speed="14.00" length="41.37" shape="34.74,116.33 75.83,116.33"/>
        <lane id="e16_1" index="1" speed="14.00" length="41.37" shape="34.74,119.53 76.39,119.53"/>
    </edge>
    <edge id="e17" from="15" to="16" priority="2">
        <lane id="e17_0" index="0" speed="14.00" length="8.70" shape="78.38,116.37 87.08,116.77"/>
        <lane id="e17_1" index="1" speed="14.00" length="8.70" shape="78.24,119.57 86.93,119.97"/>
    </edge>
    <edge id="e18" from="16" to="17" priority="2">
        <lane id="e18_0" index="0" speed="14.00" length="49.55" shape="114.80,118.52 164.38,118.52"/>
        <lane id="e18_1" index="1" speed="14.00" length="49.55" shape="114.80,121.72 164.33,121.72"/>
    </edge>
    <edge id="e19" from="17" to="18" priority="2">
        <lane id="e19_0" index="0" speed="14.00" length="26.07" shape="175.11,120.25 200.06,127.83"/>
        <lane id="e19_1" index="1" speed="14.00" length="26.07" shape="174.18,123.31 199.12,130.89"/>
    </edge>
    <edge id="e2" from="1" to="6" priority="2">
        <lane id="e2_0" index="0" speed="14.00" length="127.44" shape="4.80,1.50 4.80,129.35"/>
        <lane id="e2_1" index="1" speed="14.00" length="127.44" shape="1.60,1.50 1.60,128.52"/>
    </edge>
    <edge id="e20" from="18" to="19" priority="2">
        <lane id="e20_0" index="0" speed="14.00" length="13.75" shape="203.49,128.22 217.24,128.22"/>
        <lane id="e20_1" index="1" speed="14.00" length="13.75" shape="203.49,131.43 217.24,131.43"/>
    </edge>
    <edge id="e21" from="19" to="20" priority="2">
        <lane id="e21_0" index="0" speed="14.00" length="20.01" shape="222.75,122.65 222.75,102.66"/>
        <lane id="e21_1" index="1" speed="14.00" length="20.01" shape="225.95,122.69 225.95,102.66"/>
    </edge>
    <edge id="e22" from="5" to="17" priority="2">
        <lane id="e22_0" index="0" speed="14.00" length="73.08" shape="145.67,44.59 170.26,113.41"/>
        <lane id="e22_1" index="1" speed="14.00" length="73.08" shape="142.65,45.67 167.25,114.49"/>
    </edge>
    <edge id="e23" from="7" to="18" priority="2">
        <lane id="e23_0" index="0" speed="14.00" length="175.67" shape="39.68,56.52 200.14,127.56"/>
        <lane id="e23_1" index="1" speed="14.00" length="175.67" shape="38.39,59.45 199.20,130.64"/>
    </edge>
    <edge id="e25" from="11" to="3" priority="2">
        <lane id="e25_0" index="0" speed="14.00" length="16.15" shape="73.09,65.19 65.42,50.97"/>
        <lane id="e25_1" index="1" speed="14.00" length="16.15" shape="75.90,63.67 68.24,49.45"/>
    </edge>
    <edge id="e26" from="13" to="2" priority="2">
        <lane id="e26_0" index="0" speed="14.00" length="164.46" shape="218.94,4.80 54.48,4.80"/>
        <lane id="e26_1" index="1" speed="14.00" length="164.46" shape="218.94,1.60 54.48,1.60"/>
    </edge>
    <edge id="e27" from="14" to="17" priority="2">
        <lane id="e27_0" index="0" speed="14.00" length="129.58" shape="34.82,116.33 164.38,118.45"/>
        <lane id="e27_1" index="1" speed="14.00" length="129.58" shape="34.77,119.53 164.33,121.65"/>
    </edge>
    <edge id="e28" from="15" to="6" priority="2">
        <lane id="e28_0" index="0" speed="14.00" length="67.40" shape="77.54,125.97 11.18,137.79"/>
        <lane id="e28_1" index="1" speed="14.00" length="67.40" shape="76.98,122.82 10.62,134.64"/>
    </edge>
    <edge id="e29" from="16" to="8" priority="2">
        <lane id="e29_0" index="0" speed="14.00" length="33.43" shape="88.12,112.29 57.47,98.96"/>
        <lane id="e29_1" index="1" speed="14.00" length="33.43" shape="89.39,109.36 58.74,96.02"/>
    </edge>
    <edge id="e3" from="2" to="3" priority="2">
        <lane id="e3_0" index="0" speed="14.00" length="5.01" shape="51.78,10.51 54.96,14.37"/>
        <lane id="e3_1" index="1" speed="14.00" length="5.01" shape="49.31,12.54 52.49,16.41"/>
    </edge>
    <edge id="e30" from="19" to="13" priority="2">
        <lane id="e30_0" index="0" speed="14.00" length="112.24" shape="222.90,122.65 224.48,10.42"/>
        <lane id="e30_1" index="1" speed="14.00" length="112.24" shape="226.10,122.69 227.68,10.47"/>
    </edge>
    <edge id="e4" from="2" to="7" priority="2">
        <lane id="e4_0" index="0" speed="14.00" length="38.27" shape="39.08,9.26 27.69,45.79"/>
        <lane id="e4_1" index="1" speed="14.00" length="38.27" shape="36.02,8.30 24.63,44.83"/>
    </edge>
    <edge id="e5" from="3" to="4" priority="2">
        <lane id="e5_0" index="0" speed="14.00" length="101.97" shape="62.74,18.05 164.71,18.05"/>
        <lane id="e5_1" index="1" speed="14.00" length="101.97" shape="62.74,21.25 164.71,21.25"/>
    </edge>
    <edge id="e6" from="3" to="8" priority="2">
        <lane id="e6_0" index="0" speed="14.00" length="27.12" shape="60.51,52.21 60.51,79.33"/>
        <lane id="e6_1" index="1" speed="14.00" length="27.12" shape="57.31,52.21 57.31,79.33"/>
    </edge>
    <edge id="e7" from="4" to="5" priority="2">
        <lane id="e7_0" index="0" speed="14.00" length="12.32" shape="159.74,32.09 148.49,37.09"/>
        <lane id="e7_1" index="1" speed="14.00" length="12.32" shape="158.44,29.16 147.19,34.16"/>
    </edge>
    <edge id="e8" from="4" to="9" priority="2">
        <lane id="e8_0" index="0" speed="14.00" length="57.33" shape="166.49,37.67 140.31,88.67"/>
        <lane id="e8_1" index="1" speed="14.00" length="57.33" shape="163.64,36.21 137.46,87.21"/>
    </edge>
    <edge id="e9" from="5" to="10" priority="2">
        <lane id="e9_0" index="0" speed="14.00" length="27.10" shape="135.87,43.03 111.93,55.72"/>
        <lane id="e9_1" index="1" speed="14.00" length="27.10" shape="134.37,40.21 110.43,52.90"/>
    </edge>

    <junction id="1" type="dead_end" x="0.00" y="0.00" incLanes="" intLanes="" shape="0.00,1.50 6.40,1.50 6.57,0.67 6.78,0.38 7.07,0.17 7.44,0.04 7.90,0.00 7.90,-6.40 5.49,-6.18 3.51,-5.52 1.98,-4.43 0.88,-2.89 0.22,-0.91"/>
    <junction id="10" type="priority" x="106.42" y="53.21" incLanes="e13_0 e13_1 e9_0 e9_1" intLanes=":10_0_0 :10_0_1 :10_2_0 :10_2_1" shape="106.32,64.66 111.66,61.13 111.02,59.55 111.07,58.85 111.36,58.22 111.90,57.65 112.68,57.14 109.68,51.48 107.48,52.61 105.82,53.39 104.41,53.94 102.97,54.42 101.22,54.97 98.86,55.73 100.88,61.80 102.78,61.69 103.69,62.03 104.59,62.64 105.47,63.52">
        <request index="0" response="0000" foes="1100" cont="0"/>
        <request index="1" response="0000" foes="1100" cont="0"/>
        <request index="2" response="0011" foes="0011" cont="0"/>
        <request index="3" response="0011" foes="0011" cont="0"/>
    </junction>
    <junction id="11" type="priority" x="77.31" y="62.91" incLanes="e14_0 e14_1" intLanes=":11_0_0 :11_0_1" shape="79.33,68.98 77.31,62.91 71.68,65.95 73.66,68.39 74.87,69.08 76.22,69.40 77.70,69.37">
        <request index="0" response="00" foes="00" cont="0"/>
        <request index="1" response="00" foes="00" cont="0"/>
    </junction>
    <junction id="12" type="dead_end" x="165.89" y="0.00" incLanes="" intLanes="" shape="165.89,0.00 165.89,-6.40"/>
    <junction id="13" type="priority" x="229.43" y="0.00" incLanes="e15_0 e15_1 e30_0 e30_1" intLanes=":13_3_0 :13_1_0 :13_1_1" shape="218.94,-6.40 218.94,6.40 221.15,6.84 221.92,7.40 222.47,8.18 222.79,9.18 222.88,10.40 229.28,10.49 229.06,5.33 228.24,1.11 226.81,-2.18 224.79,-4.52 222.16,-5.93">
        <request index="0" response="110" foes="110" cont="1"/>
        <request index="1" response="000" foes="001" cont="0"/>
        <request index="2" response="000" foes="001" cont="0"/>
    </junction>
    <junction id="14" type="dead_end" x="34.74" y="121.13" incLanes="" intLanes="" shape="34.74,121.13 34.85,114.73 34.74,121.13 34.74,114.73"/>
    <junction id="15" type="priority" x="77.31" y="121.13" incLanes="e16_0 e16_1" intLanes=":15_0_0 :15_0_1 :15_2_0" shape="78.17,121.17 78.46,114.78 75.54,114.73 77.82,127.54">
        <request index="0" response="000" foes="000" cont="0"/>
        <request index="1" response="000" foes="000" cont="0"/>
        <request index="2" response="000" foes="000" cont="0"/>
    </junction>
    <junction id="16" type="priority" x="125.51" y="123.32" incLanes="e17_0 e17_1" intLanes=":16_0_0 :16_0_1 :16_2_0 :16_2_1" shape="114.80,123.32 114.80,116.92 109.23,116.62 105.21,115.75 102.01,114.38 98.90,112.57 95.15,110.38 90.03,107.89 87.48,113.76 87.15,115.17 86.86,121.57">
        <request index="0" response="0000" foes="0000" cont="0"/>
        <request index="1" response="0000" foes="0000" cont="0"/>
        <request index="2" response="0000" foes="0000" cont="0"/>
        <request index="3" response="0000" foes="0000" cont="0"/>
    </junction>
    <junction id="17" type="priority" x="168.71" y="123.32" incLanes="e22_0 e22_1 e18_0 e18_1 e27_0 e27_1" intLanes=":17_0_0 :17_0_1 :17_2_0 :17_2_1 :17_4_0 :17_4_1" shape="173.71,124.84 175.58,118.72 174.30,117.81 173.66,116.97 173.03,115.86 172.40,114.50 171.77,112.87 165.74,115.03 165.89,116.08 165.75,116.45 165.45,116.71 165.00,116.87 164.41,116.92 164.30,123.25 166.34,123.30 167.85,123.39 169.09,123.56 170.31,123.83 171.76,124.25">
        <request index="0" response="000000" foes="111100" cont="0"/>
        <request index="1" response="000000" foes="111100" cont="0"/>
        <request index="2" response="000011" foes="110011" cont="0"/>
        <request index="3" response="000011" foes="110011" cont="0"/>
        <request index="4" response="001111" foes="001111" cont="0"/>
        <request index="5" response="001111" foes="001111" cont="0"/>
    </junction>
    <junction id="18" type="priority" x="200.63" y="133.03" incLanes="e23_0 e23_1 e19_0 e19_1" intLanes=":18_0_0 :18_0_1 :18_2_0 :18_2_1" shape="203.49,133.03 203.49,126.62 202.39,126.60 202.00,126.54 201.63,126.44 201.19,126.27 200.61,126.02 198.65,132.42 200.40,132.89 201.03,132.99 201.67,133.03 202.44,133.03">
        <request index="0" response="0000" foes="1100" cont="0"/>
        <request index="1" response="0000" foes="1100" cont="0"/>
        <request index="2" response="0011" foes="0011" cont="0"/>
        <request index="3" response="0011" foes="0011" cont="0"/>
    </junction>
    <junction id="19" type="priority" x="227.55" y="133.03" incLanes="e20_0 e20_1" intLanes=":19_0_0 :19_0_1 :19_2_0 :19_2_1" shape="227.55,122.71 221.30,122.63 220.82,124.85 220.25,125.63 219.47,126.18 218.46,126.51 217.24,126.62 217.24,133.03 220.39,132.74 222.97,131.88 224.97,130.45 226.41,128.44 227.26,125.87">
        <request index="0" response="0000" foes="1000" cont="0"/>
        <request index="1" response="0000" foes="1000" cont="0"/>
        <request index="2" response="0000" foes="0000" cont="0"/>
        <request index="3" response="0000" foes="0011" cont="0"/>
    </junction>
    <junction id="2" type="priority" x="36.93" y="0.00" incLanes="e26_0 e26_1 e1_0 e1_1" intLanes=":2_0_0 :2_1_0 :2_4_0 :2_3_0" shape="48.07,13.55 53.02,9.49 52.05,7.77 52.11,7.17 52.54,6.74 53.33,6.49 54.48,6.40 54.48,0.00 49.76,-0.47 46.40,-1.66 41.02,-4.74 37.65,-5.93 32.93,-6.40 32.93,0.00 34.89,0.87 35.32,1.96 35.41,3.48 35.13,5.44 34.49,7.83 40.60,9.73 41.96,8.46 43.07,8.78 44.45,9.73 46.12,11.33">
        <request index="0" response="0000" foes="0000" cont="0"/>
        <request index="1" response="0000" foes="0100" cont="0"/>
        <request index="2" response="0010" foes="0010" cont="1"/>
        <request index="3" response="0000" foes="0000" cont="0"/>
    </junction>
    <junction id="20" type="dead_end" x="227.55" y="102.66" incLanes="e21_0 e21_1" intLanes="" shape="221.15,102.66 227.55,102.66"/>
    <junction id="3" type="priority" x="55.71" y="22.85" incLanes="e25_0 e25_1 e3_0 e3_1" intLanes=":3_0_0 :3_1_0 :3_2_0 :3_3_0 :3_3_1" shape="55.71,52.21 62.11,52.21 64.01,51.73 69.65,48.69 66.28,42.24 63.42,36.18 61.35,30.87 60.36,26.64 60.73,23.85 62.74,22.85 62.74,16.45 60.23,16.11 59.10,15.68 58.05,15.08 57.09,14.30 56.20,13.36 51.25,17.42 55.45,23.49 57.36,28.57 57.66,33.32 57.03,38.41 56.16,44.48">
        <request index="0" response="11000" foes="11000" cont="0"/>
        <request index="1" response="00000" foes="00000" cont="0"/>
        <request index="2" response="00000" foes="00000" cont="0"/>
        <request index="3" response="00000" foes="00001" cont="0"/>
        <request index="4" response="00000" foes="00001" cont="0"/>
    </junction>
    <junction id="4" type="priority" x="168.71" y="22.85" incLanes="e5_0 e5_1" intLanes=":4_0_0 :4_0_1 :4_2_0 :4_2_1" shape="164.71,16.45 164.71,22.85 165.72,23.39 164.98,24.06 163.41,25.00 161.02,26.22 157.79,27.70 160.39,33.55 162.22,33.04 162.68,33.22 162.83,33.69 162.68,34.44 162.22,35.48 167.92,38.40 170.96,31.70 172.57,26.21 172.75,21.94 171.50,18.89 168.82,17.06">
        <request index="0" response="0000" foes="0000" cont="0"/>
        <request index="1" response="0000" foes="0000" cont="0"/>
        <request index="2" response="0000" foes="0000" cont="0"/>
        <request index="3" response="0000" foes="0000" cont="0"/>
    </junction>
    <junction id="5" type="priority" x="137.72" y="36.62" incLanes="e7_0 e7_1" intLanes=":5_0_0 :5_0_1 :5_2_0 :5_2_1" shape="141.15,46.21 147.17,44.05 146.76,41.67 146.95,40.68 147.41,39.83 148.14,39.12 149.14,38.55 146.54,32.70 133.62,38.79 136.62,44.45 138.58,43.87 139.39,44.02 140.09,44.46 140.67,45.19">
        <request index="0" response="0000" foes="0000" cont="0"/>
        <request index="1" response="0000" foes="0000" cont="0"/>
        <request index="2" response="0000" foes="0000" cont="0"/>
        <request index="3" response="0000" foes="0000" cont="0"/>
    </junction>
    <junction id="6" type="priority" x="0.00" y="134.90" incLanes="e28_0 e28_1 e2_0 e2_1" intLanes=":6_0_0 :6_0_1 :6_2_0 :6_2_1" shape="11.46,139.36 10.34,133.06 8.15,133.01 7.38,132.59 6.84,131.91 6.51,130.97 6.40,129.76 -4.61,126.92 -5.27,131.72 -4.60,135.42 -2.58,138.04 0.76,139.57 5.44,140.01">
        <request index="0" response="0000" foes="1100" cont="0"/>
        <request index="1" response="0000" foes="1100" cont="0"/>
        <request index="2" response="0011" foes="0011" cont="0"/>
        <request index="3" response="0011" foes="0011" cont="0"/>
    </junction>
    <junction id="7" type="priority" x="20.34" y="53.21" incLanes="e4_0 e4_1 e10_0 e10_1" intLanes=":7_0_0 :7_1_0 :7_4_0 :7_3_0" shape="32.07,66.39 36.85,62.13 37.74,60.91 40.33,55.06 36.64,53.32 33.68,51.69 31.46,50.16 29.98,48.75 29.23,47.45 29.21,46.26 23.10,44.36 21.75,47.08 19.98,48.67 18.04,49.70 16.12,50.74 14.46,52.35 13.27,55.12 19.48,56.67 21.26,56.21 23.06,57.37 25.46,59.45 28.46,62.46">
        <request index="0" response="0000" foes="0000" cont="0"/>
        <request index="1" response="0000" foes="0100" cont="0"/>
        <request index="2" response="0010" foes="0010" cont="1"/>
        <request index="3" response="0000" foes="0000" cont="0"/>
    </junction>
    <junction id="8" type="priority" x="55.71" y="92.96" incLanes="e29_0 e29_1 e6_0 e6_1 e11_0 e11_1" intLanes=":8_6_0 :8_7_0 :8_2_0 :8_2_1 :8_4_0 :8_4_1" shape="56.83,100.43 59.38,94.56 58.50,93.67 59.23,93.36 60.74,93.14 63.04,93.01 66.11,92.96 66.11,86.56 63.89,85.76 63.11,84.75 62.56,83.35 62.23,81.54 62.11,79.33 55.71,79.33 55.42,81.22 55.05,81.59 54.53,81.56 53.87,81.15 53.06,80.34 48.27,84.60 50.41,87.86 51.32,90.89 51.70,93.69 52.27,96.22 53.75,98.47">
        <request index="0" response="110000" foes="111100" cont="1"/>
        <request index="1" response="110000" foes="111100" cont="1"/>