<?xml version="1.0" encoding="UTF-8"?>

<!-- generated on 2024-10-24 07:32:30 by Eclipse SUMO netconvert Version 1.21.0
<netconvertConfiguration xmlns:xsi="http://www.w3.org/2001/XMLSchema-instance" xsi:noNamespaceSchemaLocation="http://sumo.dlr.de/xsd/netconvertConfiguration.xsd">

    <input>
        <node-files value="sumotest.nod.xml"/>
        <edge-files value="sumotest.edg.xml"/>
    </input>

    <output>
        <output-file value="sumotest.net.xml"/>
    </output>

</netconvertConfiguration>
-->

<net version="1.20" junctionCornerDetail="5" limitTurnSpeed="5.50" xmlns:xsi="http://www.w3.org/2001/XMLSchema-instance" xsi:noNamespaceSchemaLocation="http://sumo.dlr.de/xsd/net_file.xsd">

    <location netOffset="0.00,200.00" convBoundary="0.00,0.00,250.00,200.00" origBoundary="0.00,-200.00,250.00,0.00" projParameter="!"/>

    <edge id=":10_0" function="internal">
        <lane id=":10_0_0" index="0" speed="8.17" length="29.88" shape="152.23,189.13 149.15,178.64 146.96,175.29 145.64,179.07 145.20,189.99"/>
    </edge>
    <edge id=":10_1" function="internal">
        <lane id=":10_1_0" index="0" speed="6.82" length="8.14" shape="149.03,189.52 149.87,192.01 150.98,193.78 152.36,194.85 154.00,195.20"/>
    </edge>
    <edge id=":10_2" function="internal">
        <lane id=":10_2_0" index="0" speed="6.09" length="7.78" shape="144.40,195.20 146.15,194.85 147.40,193.80 148.15,192.05 148.40,189.60"/>
    </edge>
    <edge id=":10_3" function="internal">
        <lane id=":10_3_0" index="0" speed="14.00" length="9.60" shape="144.40,195.20 154.00,195.20"/>
        <lane id=":10_3_1" index="1" speed="14.00" length="9.60" shape="144.40,198.40 154.00,198.40"/>
    </edge>
    <edge id=":11_0" function="internal">
        <lane id=":11_0_0" index="0" speed="14.00" length="0.10" shape="145.20,100.00 145.20,100.00"/>
        <lane id=":11_0_1" index="1" speed="14.00" length="0.10" shape="148.40,100.00 148.40,100.00"/>
    </edge>
    <edge id=":12_0" function="internal">
        <lane id=":12_0_0" index="0" speed="8.91" length="4.07" shape="145.20,4.31 146.01,0.33"/>
        <lane id=":12_0_1" index="1" speed="7.46" length="2.11" shape="148.40,3.53 148.95,1.49"/>
    </edge>
    <edge id=":12_2" function="internal">
        <lane id=":12_2_0" index="0" speed="4.08" length="2.08" shape="148.40,3.53 149.02,1.84 149.23,1.66"/>
    </edge>
    <edge id=":12_7" function="internal">
        <lane id=":12_7_0" index="0" speed="8.91" length="13.78" shape="146.01,0.33 148.42,-2.52 152.45,-4.23 158.10,-4.80"/>
    </edge>
    <edge id=":12_8" function="internal">
        <lane id=":12_8_0" index="0" speed="7.46" length="10.07" shape="148.95,1.49 149.01,1.29 150.82,-0.32 153.85,-1.28 158.10,-1.60"/>
    </edge>
    <edge id=":12_9" function="internal">
        <lane id=":12_9_0" index="0" speed="4.08" length="3.77" shape="149.23,1.66 149.88,1.11 150.97,1.36 152.30,2.59"/>
    </edge>
    <edge id=":12_3" function="internal">
        <lane id=":12_3_0" index="0" speed="14.00" length="16.00" shape="142.10,-4.80 158.10,-4.80"/>
        <lane id=":12_3_1" index="1" speed="14.00" length="16.00" shape="142.10,-1.60 158.10,-1.60"/>
    </edge>
    <edge id=":12_5" function="internal">
        <lane id=":12_5_0" index="0" speed="8.85" length="14.31" shape="142.10,-1.60 147.60,-1.39 151.65,-0.74 154.25,0.33 155.41,1.83"/>
        <lane id=":12_5_1" index="1" speed="8.07" length="11.76" shape="142.10,-1.60 146.17,-1.34 149.22,-0.55 151.27,0.76 152.30,2.59"/>
    </edge>
    <edge id=":13_0" function="internal">
        <lane id=":13_0_0" index="0" speed="8.17" length="29.88" shape="202.23,189.13 199.15,178.64 196.96,175.29 195.64,179.07 195.20,189.99"/>
    </edge>
    <edge id=":13_1" function="internal">
        <lane id=":13_1_0" index="0" speed="6.82" length="8.14" shape="199.03,189.52 199.87,192.01 200.98,193.78 202.36,194.85 204.00,195.20"/>
    </edge>
    <edge id=":13_2" function="internal">
        <lane id=":13_2_0" index="0" speed="6.09" length="7.78" shape="194.40,195.20 196.15,194.85 197.40,193.80 198.15,192.05 198.40,189.60"/>
    </edge>
    <edge id=":13_3" function="internal">
        <lane id=":13_3_0" index="0" speed="14.00" length="9.60" shape="194.40,195.20 204.00,195.20"/>
        <lane id=":13_3_1" index="1" speed="14.00" length="9.60" shape="194.40,198.40 204.00,198.40"/>
    </edge>
    <edge id=":14_0" function="internal">
        <lane id=":14_0_0" index="0" speed="14.00" length="0.10" shape="195.20,100.00 195.20,100.00"/>
        <lane id=":14_0_1" index="1" speed="14.00" length="0.10" shape="198.40,100.00 198.40,100.00"/>
    </edge>
    <edge id=":15_0" function="internal">
        <lane id=":15_0_0" index="0" speed="8.91" length="4.07" shape="195.20,4.31 196.01,0.33"/>
        <lane id=":15_0_1" index="1" speed="7.46" length="2.11" shape="198.40,3.53 198.95,1.49"/>
    </edge>
    <edge id=":15_2" function="internal">
        <lane id=":15_2_0" index="0" speed="4.08" length="2.08" shape="198.40,3.53 199.02,1.84 199.23,1.66"/>
    </edge>
    <edge id=":15_7" function="internal">
        <lane id=":15_7_0" index="0" speed="8.91" length="13.78" shape="196.01,0.33 198.42,-2.52 202.45,-4.23 208.10,-4.80"/>
    </edge>
    <edge id=":15_8" function="internal">
        <lane id=":15_8_0" index="0" speed="7.46" length="10.07" shape="198.95,1.49 199.01,1.29 200.82,-0.32 203.85,-1.28 208.10,-1.60"/>
    </edge>
    <edge id=":15_9" function="internal">
        <lane id=":15_9_0" index="0" speed="4.08" length="3.77" shape="199.23,1.66 199.88,1.11 200.97,1.36 202.30,2.59"/>
    </edge>
    <edge id=":15_3" function="internal">
        <lane id=":15_3_0" index="0" speed="14.00" length="16.00" shape="192.10,-4.80 208.10,-4.80"/>
        <lane id=":15_3_1" index="1" speed="14.00" length="16.00" shape="192.10,-1.60 208.10,-1.60"/>
    </edge>
    <edge id=":15_5" function="internal">
        <lane id=":15_5_0" index="0" speed="8.85" length="14.31" shape="192.10,-1.60 197.60,-1.39 201.65,-0.74 204.25,0.33 205.41,1.83"/>
        <lane id=":15_5_1" index="1" speed="8.07" length="11.76" shape="192.10,-1.60 196.17,-1.34 199.22,-0.55 201.27,0.76 202.30,2.59"/>
    </edge>
    <edge id=":16_0" function="internal">
        <lane id=":16_0_0" index="0" speed="8.17" length="29.88" shape="252.23,189.13 249.15,178.64 246.96,175.29 245.64,179.07 245.20,189.99"/>
        <lane id=":16_0_1" index="1" speed="3.16" length="2.68" shape="249.03,189.52 248.75,188.58 248.56,188.28 248.44,188.62 248.40,189.60"/>
    </edge>
    <edge id=":16_2" function="internal">
        <lane id=":16_2_0" index="0" speed="5.21" length="5.42" shape="244.40,195.20 244.95,194.53 245.17,192.97 245.22,191.23 245.20,189.99"/>
        <lane id=":16_2_1" index="1" speed="7.00" length="10.61" shape="244.40,198.40 246.15,197.85 247.40,196.20 248.15,193.45 248.40,189.60"/>
    </edge>
    <edge id=":2_0" function="internal">
        <lane id=":2_0_0" index="0" speed="14.00" length="0.10" shape="-4.80,100.00 -4.80,100.00"/>
        <lane id=":2_0_1" index="1" speed="14.00" length="0.10" shape="-1.60,100.00 -1.60,100.00"/>
    </edge>
    <edge id=":3_0" function="internal">
        <lane id=":3_0_0" index="0" speed="8.91" length="17.85" shape="-4.80,4.31 -3.99,0.33 -1.58,-2.52 2.45,-4.23 8.10,-4.80"/>
        <lane id=":3_0_1" index="1" speed="7.46" length="12.19" shape="-1.60,3.53 -0.99,1.29 0.82,-0.32 3.85,-1.28 8.10,-1.60"/>
    </edge>
    <edge id=":3_2" function="internal">
        <lane id=":3_2_0" index="0" speed="4.08" length="5.86" shape="-1.60,3.53 -0.98,1.84 -0.12,1.11 0.97,1.36 2.30,2.59"/>
    </edge>
    <edge id=":4_0" function="internal">
        <lane id=":4_0_0" index="0" speed="8.17" length="29.88" shape="52.23,189.13 49.15,178.64 46.96,175.29 45.64,179.07 45.20,189.99"/>
    </edge>
    <edge id=":4_1" function="internal">
        <lane id=":4_1_0" index="0" speed="6.82" length="8.14" shape="49.03,189.52 49.87,192.01 50.98,193.78 52.36,194.85 54.00,195.20"/>
    </edge>
    <edge id=":4_2" function="internal">
        <lane id=":4_2_0" index="0" speed="6.09" length="7.78" shape="44.40,195.20 46.15,194.85 47.40,193.80 48.15,192.05 48.40,189.60"/>
    </edge>
    <edge id=":4_3" function="internal">
        <lane id=":4_3_0" index="0" speed="14.00" length="9.60" shape="44.40,195.20 54.00,195.20"/>
        <lane id=":4_3_1" index="1" speed="14.00" length="9.60" shape="44.40,198.40 54.00,198.40"/>
    </edge>
    <edge id=":5_0" function="internal">
        <lane id=":5_0_0" index="0" speed="14.00" length="0.10" shape="45.20,100.00 45.20,100.00"/>
        <lane id=":5_0_1" index="1" speed="14.00" length="0.10" shape="48.40,100.00 48.40,100.00"/>
    </edge>
    <edge id=":6_0" function="internal">
        <lane id=":6_0_0" index="0" speed="8.91" length="4.07" shape="45.20,4.31 46.01,0.33"/>
        <lane id=":6_0_1" index="1" speed="7.46" length="2.11" shape="48.40,3.53 48.95,1.49"/>
    </edge>
    <edge id=":6_2" function="internal">
        <lane id=":6_2_0" index="0" speed="4.08" length="2.08" shape="48.40,3.53 49.02,1.84 49.23,1.66"/>
    </edge>
    <edge id=":6_7" function="internal">
        <lane id=":6_7_0" index="0" speed="8.91" length="13.78" shape="46.01,0.33 48.42,-2.52 52.45,-4.23 58.10,-4.80"/>
    </edge>
    <edge id=":6_8" function="internal">
        <lane id=":6_8_0" index="0" speed="7.46" length="10.07" shape="48.95,1.49 49.01,1.29 50.82,-0.32 53.85,-1.28 58.10,-1.60"/>
    </edge>
    <edge id=":6_9" function="internal">
        <lane id=":6_9_0" index="0" speed="4.08" length="3.77" shape="49.23,1.66 49.88,1.11 50.97,1.36 52.30,2.59"/>
    </edge>
    <edge id=":6_3" function="internal">
        <lane id=":6_3_0" index="0" speed="14.00" length="16.00" shape="42.10,-4.80 58.10,-4.80"/>
        <lane id=":6_3_1" index="1" speed="14.00" length="16.00" shape="42.10,-1.60 58.10,-1.60"/>
    </edge>
    <edge id=":6_5" function="internal">
        <lane id=":6_5_0" index="0" speed="8.85" length="14.31" shape="42.10,-1.60 47.60,-1.39 51.65,-0.74 54.25,0.33 55.41,1.83"/>
        <lane id=":6_5_1" index="1" speed="8.07" length="11.76" shape="42.10,-1.60 46.17,-1.34 49.22,-0.55 51.27,0.76 52.30,2.59"/>
    </edge>
    <edge id=":7_0" function="internal">
        <lane id=":7_0_0" index="0" speed="8.17" length="29.88" shape="102.23,189.13 99.15,178.64 96.96,175.29 95.64,179.07 95.20,189.99"/>
    </edge>
    <edge id=":7_1" function="internal">
        <lane id=":7_1_0" index="0" speed="6.82" length="8.14" shape="99.03,189.52 99.87,192.01 100.98,193.78 102.36,194.85 104.00,195.20"/>
    </edge>
    <edge id=":7_2" function="internal">
        <lane id=":7_2_0" index="0" speed="6.09" length="7.78" shape="94.40,195.20 96.15,194.85 97.40,193.80 98.15,192.05 98.40,189.60"/>
    </edge>
    <edge id=":7_3" function="internal">
        <lane id=":7_3_0" index="0" speed="14.00" length="9.60" shape="94.40,195.20 104.00,195.20"/>
        <lane id=":7_3_1" index="1" speed="14.00" length="9.60" shape="94.40,198.40 104.00,198.40"/>
    </edge>
    <edge id=":8_0" function="internal">
        <lane id=":8_0_0" index="0" speed="14.00" length="0.10" shape="95.20,100.00 95.20,100.00"/>
        <lane id=":8_0_1" index="1" speed="14.00" length="0.10" shape="98.40,100.00 98.40,100.00"/>
    </edge>
    <edge id=":9_0" function="internal">
        <lane id=":9_0_0" index="0" speed="8.91" length="4.07" shape="95.20,4.31 96.01,0.33"/>
        <lane id=":9_0_1" index="1" speed="7.46" length="2.11" shape="98.40,3.53 98.95,1.49"/>
    </edge>
    <edge id=":9_2" function="internal">
        <lane id=":9_2_0" index="0" speed="4.08" length="2.08" shape="98.40,3.53 99.02,1.84 99.23,1.66"/>
    </edge>
    <edge id=":9_7" function="internal">
        <lane id=":9_7_0" index="0" speed="8.91" length="13.78" shape="96.01,0.33 98.42,-2.52 102.45,-4.23 108.10,-4.80"/>
    </edge>
    <edge id=":9_8" function="internal">
        <lane id=":9_8_0" index="0" speed="7.46" length="10.07" shape="98.95,1.49 99.01,1.29 100.82,-0.32 103.85,-1.28 108.10,-1.60"/>
    </edge>
    <edge id=":9_9" function="internal">
        <lane id=":9_9_0" index="0" speed="4.08" length="3.77" shape="99.23,1.66 99.88,1.11 100.97,1.36 102.30,2.59"/>
    </edge>
    <edge id=":9_3" function="internal">
        <lane id=":9_3_0" index="0" speed="14.00" length="16.00" shape="92.10,-4.80 108.10,-4.80"/>
        <lane id=":9_3_1" index="1" speed="14.00" length="16.00" shape="92.10,-1.60 108.10,-1.60"/>
    </edge>
    <edge id=":9_5" function="internal">
        <lane id=":9_5_0" index="0" speed="8.85" length="14.31" shape="92.10,-1.60 97.60,-1.39 101.65,-0.74 104.25,0.33 105.41,1.83"/>
        <lane id=":9_5_1" index="1" speed="8.07" length="11.76" shape="92.10,-1.60 96.17,-1.34 99.22,-0.55 101.27,0.76 102.30,2.59"/>
    </edge>

    <edge id="e1" from="1" to="2" priority="2">
        <lane id="e1_0" index="0" speed="14.00" length="92.10" shape="-4.80,192.10 -4.80,100.00"/>
        <lane id="e1_1" index="1" speed="14.00" length="92.10" shape="-1.60,192.10 -1.60,100.00"/>
    </edge>
    <edge id="e10" from="10" to="11" priority="2">
        <lane id="e10_0" index="0" speed="14.00" length="89.80" shape="145.20,189.99 145.20,100.00"/>
        <lane id="e10_1" index="1" speed="14.00" length="89.80" shape="148.40,189.60 148.40,100.00"/>
    </edge>
    <edge id="e11" from="11" to="12" priority="2">
        <lane id="e11_0" index="0" speed="14.00" length="96.08" shape="145.20,100.00 145.20,4.31"/>
        <lane id="e11_1" index="1" speed="14.00" length="96.08" shape="148.40,100.00 148.40,3.53"/>
    </edge>
    <edge id="e12" from="12" to="13" priority="2">
        <lane id="e12_0" index="0" speed="14.00" length="192.87" shape="155.41,1.83 202.23,189.13"/>
        <lane id="e12_1" index="1" speed="14.00" length="192.87" shape="152.30,2.59 199.03,189.52"/>
    </edge>
    <edge id="e13" from="13" to="14" priority="2">
        <lane id="e13_0" index="0" speed="14.00" length="89.80" shape="195.20,189.99 195.20,100.00"/>
        <lane id="e13_1" index="1" speed="14.00" length="89.80" shape="198.40,189.60 198.40,100.00"/>
    </edge>
    <edge id="e14" from="14" to="15" priority="2">
        <lane id="e14_0" index="0" speed="14.00" length="96.08" shape="195.20,100.00 195.20,4.31"/>
        <lane id="e14_1" index="1" speed="14.00" length="96.08" shape="198.40,100.00 198.40,3.53"/>
    </edge>
    <edge id="e15" from="15" to="16" priority="2">
        <lane id="e15_0" index="0" speed="14.00" length="192.87" shape="205.41,1.83 252.23,189.13"/>
        <lane id="e15_1" index="1" speed="14.00" length="192.87" shape="202.30,2.59 249.03,189.52"/>
    </edge>
    <edge id="e16" from="16" to="17" priority="2">
        <lane id="e16_0" index="0" speed="14.00" length="89.80" shape="245.20,189.99 245.20,100.00"/>
        <lane id="e16_1" index="1" speed="14.00" length="89.80" shape="248.40,189.60 248.40,100.00"/>
    </edge>
    <edge id="e17" from="15" to="18" priority="2">
        <lane id="e17_0" index="0" speed="14.00" length="41.90" shape="208.10,-4.80 250.00,-4.80"/>
        <lane id="e17_1" index="1" speed="14.00" length="41.90" shape="208.10,-1.60 250.00,-1.60"/>
    </edge>
    <edge id="e18" from="1" to="4" priority="2">
        <lane id="e18_0" index="0" speed="14.00" length="42.90" shape="1.50,195.20 44.40,195.20"/>
        <lane id="e18_1" index="1" speed="14.00" length="42.90" shape="1.50,198.40 44.40,198.40"/>
    </edge>
    <edge id="e19" from="4" to="7" priority="2">
        <lane id="e19_0" index="0" speed="14.00" length="40.40" shape="54.00,195.20 94.40,195.20"/>
        <lane id="e19_1" index="1" speed="14.00" length="40.40" shape="54.00,198.40 94.40,198.40"/>
    </edge>
    <edge id="e2" from="2" to="3" priority="2">
        <lane id="e2_0" index="0" speed="14.00" length="96.08" shape="-4.80,100.00 -4.80,4.31"/>
        <lane id="e2_1" index="1" speed="14.00" length="96.08" shape="-1.60,100.00 -1.60,3.53"/>
    </edge>
    <edge id="e20" from="7" to="10" priority="2">
        <lane id="e20_0" index="0" speed="14.00" length="40.40" shape="104.00,195.20 144.40,195.20"/>
        <lane id="e20_1" index="1" speed="14.00" length="40.40" shape="104.00,198.40 144.40,198.40"/>
    </edge>
    <edge id="e21" from="10" to="13" priority="2">
        <lane id="e21_0" index="0" speed="14.00" length="40.40" shape="154.00,195.20 194.40,195.20"/>
        <lane id="e21_1" index="1" speed="14.00" length="40.40" shape="154.00,198.40 194.40,198.40"/>
    </edge>
    <edge id="e22" from="13" to="16" priority="2">
        <lane id="e22_0" index="0" speed="14.00" length="40.40" shape="204.00,195.20 244.40,195.20"/>
        <lane id="e22_1" index="1" speed="14.00" length="40.40" shape="204.00,198.40 244.40,198.40"/>
    </edge>
    <edge id="e23" from="3" to="6" priority="2">
        <lane id="e23_0" index="0" speed="14.00" length="34.00" shape="8.10,-4.80 42.10,-4.80"/>
        <lane id="e23_1" index="1" speed="14.00" length="34.00" shape="8.10,-1.60 42.10,-1.60"/>
    </edge>
    <edge id="e24" from="6" to="9" priority="2">
        <lane id="e24_0" index="0" speed="14.00" length="34.00" shape="58.10,-4.80 92.10,-4.80"/>
        <lane id="e24_1" index="1" speed="14.00" length="34.00" shape="58.10,-1.60 92.10,-1.60"/>
    </edge>
    <edge id="e25" from="9" to="12" priority="2">
        <lane id="e25_0" index="0" speed="14.00" length="34.00" shape="108.10,-4.80 142.10,-4.80"/>
        <lane id="e25_1" index="1" speed="14.00" length="34.00" shape="108.10,-1.60 142.10,-1.60"/>
    </edge>
    <edge id="e26" from="12" to="15" priority="2">
        <lane id="e26_0" index="0" speed="14.00" length="34.00" shape="158.10,-4.80 192.10,-4.80"/>
        <lane id="e26_1" index="1" speed="14.00" length="34.00" shape="158.10,-1.60 192.10,-1.60"/>
    </edge>
    <edge id="e3" from="3" to="4" priority="2">
        <lane id="e3_0" index="0" speed="14.00" length="192.87" shape="5.41,1.83 52.23,189.13"/>
        <lane id="e3_1" index="1" speed="14.00" length="192.87" shape="2.30,2.59 49.03,189.52"/>
    </edge>
    <edge id="e4" from="4" to="5" priority="2">
        <lane id="e4_0" index="0" speed="14.00" length="89.80" shape="45.20,189.99 45.20,100.00"/>
        <lane id="e4_1" index="1" speed="14.00" length="89.80" shape="48.40,189.60 48.40,100.00"/>
    </edge>
    <edge id="e5" from="5" to="6" priority="2">
        <lane id="e5_0" index="0" speed="14.00" length="96.08" shape="45.20,100.00 45.20,4.31"/>
        <lane id="e5_1" index="1" speed="14.00" length="96.08" shape="48.40,100.00 48.40,3.53"/>
    </edge>
    <edge id="e6" from="6" to="7" priority="2">
        <lane id="e6_0" index="0" speed="14.00" length="192.87" shape="55.41,1.83 102.23,189.13"/>
        <lane id="e6_1" index="1" speed="14.00" length="192.87" shape="52.30,2.59 99.03,189.52"/>
    </edge>
    <edge id="e7" from="7" to="8" priority="2">
        <lane id="e7_0" index="0" speed="14.00" length="89.80" shape="95.20,189.99 95.20,100.00"/>
        <lane id="e7_1" index="1" speed="14.00" length="89.80" shape="98.40,189.60 98.40,100.00"/>
    </edge>
    <edge id="e8" from="8" to="9" priority="2">
        <lane id="e8_0" index="0" speed="14.00" length="96.08" shape="95.20,100.00 95.20,4.31"/>
        <lane id="e8_1" index="1" speed="14.00" length="96.08" shape="98.40,100.00 98.40,3.53"/>
    </edge>
    <edge id="e9" from="9" to="10" priority="2">
        <lane id="e9_0" index="0" speed="14.00" length="192.87" shape="105.41,1.83 152.23,189.13"/>
        <lane id="e9_1" index="1" speed="14.00" length="192.87" shape="102.30,2.59 149.03,189.52"/>
    </edge>

    <junction id="1" type="dead_end" x="0.00" y="200.00" incLanes="" intLanes="" shape="1.50,200.00 1.50,193.60 0.67,193.43 0.38,193.22 0.17,192.93 0.04,192.56 0.00,192.10 -6.40,192.10 -6.18,194.51 -5.52,196.49 -4.43,198.03 -2.89,199.12 -0.91,199.78"/>
    <junction id="10" type="priority" x="150.00" y="200.00" incLanes="e9_0 e9_1 e20_0 e20_1" intLanes=":10_0_0 :10_1_0 :10_2_0 :10_3_0 :10_3_1" shape="154.00,200.00 154.00,193.60 151.78,193.13 151.00,192.55 150.44,191.73 150.11,190.69 150.00,189.40 147.43,189.72 147.52,191.88 147.16,192.63 146.51,193.17 145.60,193.49 144.40,193.60 144.40,200.00">
        <request index="0" response="00000" foes="00000" cont="0"/>
        <request index="1" response="00000" foes="11100" cont="0"/>
        <request index="2" response="00010" foes="00010" cont="0"/>
        <request index="3" response="00010" foes="00010" cont="0"/>
        <request index="4" response="00010" foes="00010" cont="0"/>
    </junction>
    <junction id="11" type="priority" x="150.00" y="100.00" incLanes="e10_0 e10_1" intLanes=":11_0_0 :11_0_1" shape="143.60,100.00 150.00,100.00 143.60,100.00">
        <request index="0" response="00" foes="00" cont="0"/>
        <request index="1" response="00" foes="00" cont="0"/>
    </junction>
    <junction id="12" type="priority" x="150.00" y="0.00" incLanes="e11_0 e11_1 e25_0 e25_1" intLanes=":12_7_0 :12_8_0 :12_9_0 :12_3_0 :12_3_1 :12_5_0 :12_5_1" shape="143.60,4.70 156.96,1.46 156.93,0.65 157.06,0.36 157.30,0.16 157.65,0.04 158.10,0.00 158.10,-6.40 142.10,-6.40 142.10,0.00 142.93,0.52 143.22,1.18 143.43,2.09 143.56,3.26">
        <request index="0" response="1111000" foes="1111000" cont="1"/>
        <request index="1" response="1111000" foes="1111000" cont="1"/>
        <request index="2" response="1100000" foes="1100000" cont="1"/>
        <request index="3" response="0000000" foes="0000011" cont="0"/>
        <request index="4" response="0000000" foes="0000011" cont="0"/>
        <request index="5" response="0000000" foes="0000111" cont="0"/>
        <request index="6" response="0000000" foes="0000111" cont="0"/>
    </junction>
    <junction id="13" type="priority" x="200.00" y="200.00" incLanes="e12_0 e12_1 e21_0 e21_1" intLanes=":13_0_0 :13_1_0 :13_2_0 :13_3_0 :13_3_1" shape="204.00,200.00 204.00,193.60 201.78,193.13 201.00,192.55 200.44,191.73 200.11,190.69 200.00,189.40 197.43,189.72 197.52,191.88 197.16,192.63 196.51,193.17 195.60,193.49 194.40,193.60 194.40,200.00">
        <request index="0" response="00000" foes="00000" cont="0"/>
        <request index="1" response="00000" foes="11100" cont="0"/>
        <request index="2" response="00010" foes="00010" cont="0"/>
        <request index="3" response="00010" foes="00010" cont="0"/>
        <request index="4" response="00010" foes="00010" cont="0"/>
    </junction>
    <junction id="14" type="priority" x="200.00" y="100.00" incLanes="e13_0 e13_1" intLanes=":14_0_0 :14_0_1" shape="193.60,100.00 200.00,100.00 193.60,100.00">
        <request index="0" response="00" foes="00" cont="0"/>
        <request index="1" response="00" foes="00" cont="0"/>
    </junction>
    <junction id="15" type="priority" x="200.00" y="0.00" incLanes="e14_0 e14_1 e26_0 e26_1" intLanes=":15_7_0 :15_8_0 :15_9_0 :15_3_0 :15_3_1 :15_5_0 :15_5_1" shape="193.60,4.70 206.96,1.46 206.93,0.65 207.06,0.36 207.30,0.16 207.65,0.04 208.10,0.00 208.10,-6.40 192.10,-6.40 192.10,0.00 192.93,0.52 193.22,1.18 193.43,2.09 193.56,3.26">
        <request index="0" response="1111000" foes="1111000" cont="1"/>
        <request index="1" response="1111000" foes="1111000" cont="1"/>
        <request index="2" response="1100000" foes="1100000" cont="1"/>
        <request index="3" response="0000000" foes="0000011" cont="0"/>
        <request index="4" response="0000000" foes="0000011" cont="0"/>
        <request index="5" response="0000000" foes="0000111" cont="0"/>
        <request index="6" response="0000000" foes="0000111" cont="0"/>
    </junction>
    <junction id="16" type="priority" x="250.00" y="200.00" incLanes="e15_0 e15_1 e22_0 e22_1" intLanes=":16_0_0 :16_0_1 :16_2_0 :16_2_1" shape="250.00,189.40 247.43,189.72 247.52,191.88 247.16,192.63 246.51,193.17 245.60,193.49 244.40,193.60 244.40,200.00 247.51,198.82 248.60,197.35 249.38,195.29 249.84,192.64">
        <request index="0" response="0000" foes="1100" cont="0"/>
        <request index="1" response="0000" foes="1100" cont="0"/>
        <request index="2" response="0011" foes="0011" cont="0"/>
        <request index="3" response="0011" foes="0011" cont="0"/>
    </junction>
    <junction id="17" type="dead_end" x="250.00" y="100.00" incLanes="e16_0 e16_1" intLanes="" shape="243.60,100.00 250.00,100.00"/>
    <junction id="18" type="dead_end" x="250.00" y="0.00" incLanes="e17_0 e17_1" intLanes="" shape="250.00,-6.40 250.00,0.00"/>
    <junction id="2" type="priority" x="0.00" y="100.00" incLanes="e1_0 e1_1" intLanes=":2_0_0 :2_0_1" shape="-6.40,100.00 0.00,100.00 -6.40,100.00">
        <request index="0" response="00" foes="00" cont="0"/>
        <request index="1" response="00" foes="00" cont="0"/>
    </junction>
    <junction id="3" type="priority" x="0.00" y="0.00" incLanes="e2_0 e2_1" intLanes=":3_0_0 :3_0_1 :3_2_0" shape="-6.40,4.70 6.96,1.46 6.93,0.65 7.06,0.36 7.30,0.16 7.65,0.04 8.10,0.00 8.10,-6.40 3.67,-6.09 0.04,-5.17 -2.78,-3.62 -4.79,-1.47 -6.00,1.31">
        <request index="0" response="000" foes="000" cont="0"/>
        <request index="1" response="000" foes="000" cont="0"/>
        <request index="2" response="000" foes="000" cont="0"/>
    </junction>
    <junction id="4" type="priority" x="50.00" y="200.00" incLanes="e3_0 e3_1 e18_0 e18_1" intLanes=":4_0_0 :4_1_0 :4_2_0 :4_3_0 :4_3_1" shape="54.00,200.00 54.00,193.60 51.78,193.13 51.00,192.55 50.44,191.73 50.11,190.69 50.00,189.40 47.43,189.72 47.52,191.88 47.16,192.63 46.51,193.17 45.60,193.49 44.40,193.60 44.40,200.00">
        <request index="0" response="00000" foes="00000" cont="0"/>
        <request index="1" response="00000" foes="11100" cont="0"/>
        <request index="2" response="00010" foes="00010" cont="0"/>
        <request index="3" response="00010" foes="00010" cont="0"/>
        <request index="4" response="00010" foes="00010" cont="0"/>
    </junction>
    <junction id="5" type="priority" x="50.00" y="100.00" incLanes="e4_0 e4_1" intLanes=":5_0_0 :5_0_1" shape="43.60,100.00 50.00,100.00 43.60,100.00">
        <request index="0" response="00" foes="00" cont="0"/>
        <request index="1" response="00" foes="00" cont="0"/>
    </junction>
    <junction id="6" type="priority" x="50.00" y="0.00" incLanes="e5_0 e5_1 e23_0 e23_1" intLanes=":6_7_0 :6_8_0 :6_9_0 :6_3_0 :6_3_1 :6_5_0 :6_5_1" shape="43.60,4.70 56.96,1.46 56.93,0.65 57.06,0.36 57.30,0.16 57.65,0.04 58.10,0.00 58.10,-6.40 42.10,-6.40 42.10,0.00 42.93,0.52 43.23,1.18 43.43,2.09 43.56,3.26">
        <request index="0" response="1111000" foes="1111000" cont="1"/>
        <request index="1" response="1111000" foes="1111000" cont="1"/>
        <request index="2" response="1100000" foes="1100000" cont="1"/>
        <request index="3" response="0000000" foes="0000011" cont="0"/>
        <request index="4" response="0000000" foes="0000011" cont="0"/>
        <request index="5" response="0000000" foes="0000111" cont="0"/>
        <request index="6" response="0000000" foes="0000111" cont="0"/>
    </junction>
    <junction id="7" type="priority" x="100.00" y="200.00" incLanes="e6_0 e6_1 e19_0 e19_1" intLanes=":7_0_0 :7_1_0 :7_2_0 :7_3_0 :7_3_1" shape="104.00,200.00 104.00,193.60 101.78,193.13 101.00,192.55 100.44,191.73 100.11,190.69 100.00,189.40 97.43,189.72 97.52,191.88 97.16,192.63 96.51,193.17 95.60,193.49 94.40,193.60 94.40,200.00">
        <request index="0" response="00000" foes="00000" cont="0"/>
        <request index="1" response="00000" foes="11100" cont="0"/>
        <request index="2" response="00010" foes="00010" cont="0"/>
        <request index="3" response="00010" foes="00010" cont="0"/>
        <request index="4" response="00010" foes="00010" cont="0"/>
    </junction>
    <junction id="8" type="priority" x="100.00" y="100.00" incLanes="e7_0 e7_1" intLanes=":8_0_0 :8_0_1" shape="93.60,100.00 100.00,100.00 93.60,100.00">
        <request index="0" response="00" foes="00" cont="0"/>
        <request index="1" response="00" foes="00" cont="0"/>
    </junction>
    <junction id="9" type="priority" x="100.00" y="0.00" incLanes="e8_0 e8_1 e24_0 e24_1" intLanes=":9_7_0 :9_8_0 :9_9_0 :9_3_0 :9_3_1 :9_5_0 :9_5_1" shape="93.60,4.70 106.96,1.46 106.93,0.65 107.06,0.36 107.30,0.16 107.65,0.04 108.10,0.00 108.10,-6.40 92.10,-6.40 92.10,0.00 92.93,0.52 93.23,1.18 93.43,2.09 93.56,3.26">
        <request index="0" response="1111000" foes="1111000" cont="1"/>
        <request index="1" response="1111000" foes="1111000" cont="1"/>
        <request index="2" response="1100000" foes="1100000" cont="1"/>
        <request index="3" response="0000000" foes="0000011" cont="0"/>
        <request index="4" response="0000000" foes="0000011" cont="0"/>
        <request index="5" response="0000000" foes="0000111" cont="0"/>
        <request index="6" response="0000000" foes="0000111" cont="0"/>
    </junction>

    <junction id=":12_7_0" type="internal" x="146.01" y="0.33" incLanes=":12_0_0 e25_0 e25_1" intLanes=":12_3_0 :12_3_1 :12_5_0 :12_5_1"/>
    <junction id=":12_8_0" type="internal" x="148.95" y="1.49" incLanes=":12_0_1 e25_0 e25_1" intLanes=":12_3_0 :12_3_1 :12_5_0 :12_5_1"/>
    <junction id=":12_9_0" type="internal" x="149.23" y="1.66" incLanes=":12_2_0 e25_1" intLanes=":12_5_0 :12_5_1"/>
    <junction id=":15_7_0" type="internal" x="196.01" y="0.33" incLanes=":15_0_0 e26_0 e26_1" intLanes=":15_3_0 :15_3_1 :15_5_0 :15_5_1"/>
    <junction id=":15_8_0" type="internal" x="198.95" y="1.49" incLanes=":15_0_1 e26_0 e26_1" intLanes=":15_3_0 :15_3_1 :15_5_0 :15_5_1"/>
    <junction id=":15_9_0" type="internal" x="199.23" y="1.66" incLanes=":15_2_0 e26_1" intLanes=":15_5_0 :15_5_1"/>
    <junction id=":6_7_0" type="internal" x="46.01" y="0.33" incLanes=":6_0_0 e23_0 e23_1" intLanes=":6_3_0 :6_3_1 :6_5_0 :6_5_1"/>
    <junction id=":6_8_0" type="internal" x="48.95" y="1.49" incLanes=":6_0_1 e23_0 e23_1" intLanes=":6_3_0 :6_3_1 :6_5_0 :6_5_1"/>
    <junction id=":6_9_0" type="internal" x="49.23" y="1.66" incLanes=":6_2_0 e23_1" intLanes=":6_5_0 :6_5_1"/>